  
       XFOIL         Version 6.97
  
 Calculated polar for: 000073                                          
  
 1 1 Reynolds number fixed          Mach number fixed         
  
 xtrf =   1.000 (top)        1.000 (bottom)  
 Mach =   0.100     Re =     0.300 e 6     Ncrit =   9.000
  
   alpha    CL        CD       CDp       CM     Top_Xtr  Bot_Xtr
  ------ -------- --------- --------- -------- -------- --------
   2.500   1.2977   0.03014   0.02309  -0.2323   0.5682   0.0642
   3.000   1.3282   0.03103   0.02390  -0.2296   0.5584   0.0729
   3.500   1.4106   0.02997   0.02262  -0.2341   0.5506   0.0935
   4.000   1.3908   0.03330   0.02614  -0.2247   0.5386   0.1043
   4.500   1.4414   0.03357   0.02637  -0.2249   0.5304   0.1399
   5.000   1.4602   0.03558   0.02855  -0.2212   0.5201   0.1964
   5.500   1.4830   0.03729   0.03074  -0.2183   0.5097   0.3973
