  
       XFOIL         Version 6.97
  
 Calculated polar for: 000054                                          
  
 1 1 Reynolds number fixed          Mach number fixed         
  
 xtrf =   1.000 (top)        1.000 (bottom)  
 Mach =   0.100     Re =     0.300 e 6     Ncrit =   9.000
  
   alpha    CL        CD       CDp       CM     Top_Xtr  Bot_Xtr
  ------ -------- --------- --------- -------- -------- --------
   2.000   0.9034   0.01604   0.00773  -0.1248   0.5489   0.1712
   2.500   0.9403   0.01612   0.00800  -0.1215   0.5429   0.2223
   3.000   0.9898   0.01599   0.00821  -0.1212   0.5364   0.3504
