  
       XFOIL         Version 6.97
  
 Calculated polar for: 000069                                          
  
 1 1 Reynolds number fixed          Mach number fixed         
  
 xtrf =   1.000 (top)        1.000 (bottom)  
 Mach =   0.100     Re =     0.300 e 6     Ncrit =   9.000
  
   alpha    CL        CD       CDp       CM     Top_Xtr  Bot_Xtr
  ------ -------- --------- --------- -------- -------- --------
   2.500   1.3411   0.02689   0.02032  -0.2714   0.7045   0.1052
   3.000   1.4259   0.02529   0.01898  -0.2769   0.7026   0.3164
