  
       XFOIL         Version 6.97
  
 Calculated polar for: 000039                                          
  
 1 1 Reynolds number fixed          Mach number fixed         
  
 xtrf =   1.000 (top)        1.000 (bottom)  
 Mach =   0.100     Re =     0.300 e 6     Ncrit =   9.000
  
   alpha    CL        CD       CDp       CM     Top_Xtr  Bot_Xtr
  ------ -------- --------- --------- -------- -------- --------
   3.000  -0.0784   0.04873   0.04159  -0.0039   0.5310   0.3783
   3.500  -0.0098   0.04809   0.04119  -0.0066   0.5297   0.4312
   4.000   0.0587   0.04724   0.04063  -0.0091   0.5287   0.4955
   4.500   0.1274   0.04617   0.03991  -0.0113   0.5277   0.5779
