  
       XFOIL         Version 6.97
  
 Calculated polar for: 000139                                          
  
 1 1 Reynolds number fixed          Mach number fixed         
  
 xtrf =   1.000 (top)        1.000 (bottom)  
 Mach =   0.100     Re =     0.300 e 6     Ncrit =   9.000
  
   alpha    CL        CD       CDp       CM     Top_Xtr  Bot_Xtr
  ------ -------- --------- --------- -------- -------- --------
   3.000  -0.0518   0.03525   0.02639  -0.0099   0.5916   0.2747
   3.500   0.0934   0.03215   0.02328  -0.0243   0.5940   0.2833
   4.000   0.0463   0.03460   0.02571  -0.0091   0.5801   0.2860
   5.500   0.2098   0.03369   0.02489  -0.0111   0.5631   0.3060
   7.000   0.2241   0.03797   0.02931   0.0084   0.5334   0.3241
   8.000   0.2340   0.04170   0.03317   0.0200   0.5134   0.3384
  10.000   0.3905   0.04325   0.03493   0.0251   0.4860   0.3897
