  
       XFOIL         Version 6.97
  
 Calculated polar for: 000101                                          
  
 1 1 Reynolds number fixed          Mach number fixed         
  
 xtrf =   1.000 (top)        1.000 (bottom)  
 Mach =   0.100     Re =     0.300 e 6     Ncrit =   9.000
  
   alpha    CL        CD       CDp       CM     Top_Xtr  Bot_Xtr
  ------ -------- --------- --------- -------- -------- --------
   2.500  -0.2379   0.09045   0.08601  -0.0130   0.6389   0.0124
   3.000  -0.2178   0.08828   0.08353  -0.0065   0.6357   0.0138
   3.500  -0.1631   0.08628   0.08097  -0.0021   0.6314   0.0152
   4.000  -0.1278   0.08051   0.07477   0.0034   0.6287   0.0169
