  
       XFOIL         Version 6.97
  
 Calculated polar for: 000131                                          
  
 1 1 Reynolds number fixed          Mach number fixed         
  
 xtrf =   1.000 (top)        1.000 (bottom)  
 Mach =   0.100     Re =     0.300 e 6     Ncrit =   9.000
  
   alpha    CL        CD       CDp       CM     Top_Xtr  Bot_Xtr
  ------ -------- --------- --------- -------- -------- --------
   2.500   0.7274   0.03923   0.03064  -0.0074   0.3732   0.0467
   3.000   0.6885   0.04231   0.03395   0.0024   0.3695   0.0494
   3.500   0.6759   0.04462   0.03644   0.0081   0.3660   0.0593
