  
       XFOIL         Version 6.97
  
 Calculated polar for: 000113                                          
  
 1 1 Reynolds number fixed          Mach number fixed         
  
 xtrf =   1.000 (top)        1.000 (bottom)  
 Mach =   0.100     Re =     0.300 e 6     Ncrit =   9.000
  
   alpha    CL        CD       CDp       CM     Top_Xtr  Bot_Xtr
  ------ -------- --------- --------- -------- -------- --------
   2.500   1.0266   0.10292   0.09586  -0.1108   0.3941   0.3278
   3.500   1.0506   0.09440   0.08728  -0.1064   0.3776   0.3218
   5.500   0.9633   0.07339   0.06629  -0.0882   0.3526   0.3460
   6.000   0.9967   0.07402   0.06693  -0.0847   0.3435   0.3472
   6.500   1.0187   0.07450   0.06748  -0.0797   0.3342   0.3490
   7.500   0.8865   0.06634   0.05948  -0.0559   0.3254   0.3645
