  
       XFOIL         Version 6.97
  
 Calculated polar for: 000184                                          
  
 1 1 Reynolds number fixed          Mach number fixed         
  
 xtrf =   1.000 (top)        1.000 (bottom)  
 Mach =   0.100     Re =     0.300 e 6     Ncrit =   9.000
  
   alpha    CL        CD       CDp       CM     Top_Xtr  Bot_Xtr
  ------ -------- --------- --------- -------- -------- --------
   3.500   0.9159   0.04917   0.04045  -0.0281   0.1961   0.8026
   5.000   0.9877   0.04903   0.04031  -0.0137   0.1686   0.8102
   5.500   1.0187   0.04911   0.04049  -0.0100   0.1603   0.8130
