  
       XFOIL         Version 6.97
  
 Calculated polar for: 000261                                          
  
 1 1 Reynolds number fixed          Mach number fixed         
  
 xtrf =   1.000 (top)        1.000 (bottom)  
 Mach =   0.100     Re =     0.300 e 6     Ncrit =   9.000
  
   alpha    CL        CD       CDp       CM     Top_Xtr  Bot_Xtr
  ------ -------- --------- --------- -------- -------- --------
   3.000   1.0886   0.17209   0.16450  -0.0945   0.1641   0.3498
   3.500   1.1057   0.17229   0.16484  -0.0927   0.1630   0.3533
   5.500   1.0850   0.17061   0.16360  -0.0755   0.1600   0.3651
   6.000   1.0845   0.17156   0.16468  -0.0714   0.1594   0.3679
