  
       XFOIL         Version 6.97
  
 Calculated polar for: 000239                                          
  
 1 1 Reynolds number fixed          Mach number fixed         
  
 xtrf =   1.000 (top)        1.000 (bottom)  
 Mach =   0.100     Re =     0.300 e 6     Ncrit =   9.000
  
   alpha    CL        CD       CDp       CM     Top_Xtr  Bot_Xtr
  ------ -------- --------- --------- -------- -------- --------
   2.500  -0.0571   0.07821   0.07261   0.0568   0.6258   0.6246
   3.000   0.0565   0.07725   0.07167   0.0478   0.6239   0.6240
   4.500   0.1369   0.07651   0.07107   0.0563   0.5964   0.6287
   5.000   0.2179   0.07329   0.06787   0.0525   0.5948   0.6310
