  
       XFOIL         Version 6.99
  
 Calculated polar for: 000002                                          
  
 1 1 Reynolds number fixed          Mach number fixed         
  
 xtrf =   1.000 (top)        1.000 (bottom)  
 Mach =   0.100     Re =     0.001 e 6     Ncrit =   9.000  9.000
  
   alpha    CL        CD       CDp       CM     Top_Xtr  Bot_Xtr  Top_Itr  Bot_Itr
  ------ -------- --------- --------- -------- -------- -------- -------- --------
   2.000  -0.2658   0.28688   0.22904  -0.0168   1.0000   1.0000   1.0000 101.0000
   2.500  -0.2735   0.28123   0.22238  -0.0162   1.0000   1.0000   1.0000 101.0000
   3.000  -0.2812   0.27550   0.21569  -0.0156   1.0000   1.0000   1.0000 101.0000
   3.500  -0.2885   0.26979   0.20900  -0.0150   1.0000   1.0000   1.0000 101.0000
   4.000  -0.2950   0.26418   0.20236  -0.0146   1.0000   1.0000   1.0000 101.0000
   4.500  -0.2998   0.25885   0.19591  -0.0145   1.0000   1.0000   1.0000 101.0000
   5.000  -0.3015   0.25397   0.18982  -0.0148   1.0000   1.0000   1.0000 101.0000
   5.500  -0.2991   0.24970   0.18428  -0.0157   1.0000   1.0000   1.0000 101.0000
   6.000  -0.2922   0.24611   0.17944  -0.0172   1.0000   1.0000   1.0000 101.0000
   6.500  -0.2807   0.24324   0.17538  -0.0193   1.0000   1.0000   1.0000 101.0000
   7.000  -0.2648   0.24106   0.17216  -0.0218   1.0000   1.0000   1.0000 101.0000
   7.500  -0.2452   0.23951   0.16978  -0.0246   1.0000   1.0000   1.0000 101.0000
   8.000  -0.2224   0.23851   0.16818  -0.0276   1.0000   1.0000   1.0000 101.0000
   8.500  -0.1973   0.23802   0.16739  -0.0307   1.0000   1.0000   1.0000 101.0000
   9.000  -0.1702   0.23795   0.16733  -0.0338   1.0000   1.0000   1.0000 101.0000
   9.500  -0.1416   0.23825   0.16793  -0.0370   1.0000   1.0000   1.0000 101.0000
  10.000  -0.1119   0.23887   0.16915  -0.0401   1.0000   1.0000   1.0000 101.0000
  10.500  -0.0815   0.23975   0.17094  -0.0432   1.0000   1.0000   1.0000 101.0000
  11.000  -0.0506   0.24088   0.17325  -0.0462   1.0000   1.0000   1.0000 101.0000
  11.500  -0.0193   0.24221   0.17605  -0.0492   1.0000   1.0000   1.0000 101.0000
  12.000   0.0126   0.24372   0.17916  -0.0522   1.0000   1.0000   1.0000 101.0000
  12.500   0.0442   0.24547   0.18287  -0.0550   1.0000   1.0000   1.0000 101.0000
  13.000   0.0756   0.24741   0.18698  -0.0579   1.0000   1.0000   1.0000 101.0000
  13.500   0.1069   0.24945   0.19145  -0.0606   1.0000   1.0000   1.0000 101.0000
  14.000   0.1379   0.25159   0.19626  -0.0633   1.0000   1.0000   1.0000 101.0000
  14.500   0.1685   0.25380   0.20138  -0.0659   1.0000   1.0000   1.0000 101.0000
  15.000   0.1987   0.25608   0.20678  -0.0685   1.0000   1.0000   1.0000 101.0000
