  
       XFOIL         Version 6.99
  
 Calculated polar for: 000001                                          
  
 1 1 Reynolds number fixed          Mach number fixed         
  
 xtrf =   1.000 (top)        1.000 (bottom)  
 Mach =   0.100     Re =     0.001 e 6     Ncrit =   9.000  9.000
  
   alpha    CL        CD       CDp       CM     Top_Xtr  Bot_Xtr  Top_Itr  Bot_Itr
  ------ -------- --------- --------- -------- -------- -------- -------- --------
   2.000  -0.2035   0.29119   0.21273  -0.0183   1.0000   1.0000   1.0000 101.0000
   2.500  -0.2118   0.28695   0.20771  -0.0172   1.0000   1.0000   1.0000 101.0000
   3.000  -0.2200   0.28266   0.20269  -0.0161   1.0000   1.0000   1.0000 101.0000
   3.500  -0.2280   0.27836   0.19770  -0.0149   1.0000   1.0000   1.0000 101.0000
   4.000  -0.2354   0.27409   0.19275  -0.0136   1.0000   1.0000   1.0000 101.0000
   4.500  -0.2418   0.26993   0.18791  -0.0125   1.0000   1.0000   1.0000 101.0000
   5.000  -0.2471   0.26593   0.18321  -0.0113   1.0000   1.0000   1.0000 101.0000
   5.500  -0.2510   0.26215   0.17872  -0.0102   1.0000   1.0000   1.0000 101.0000
   6.000  -0.2529   0.25867   0.17450  -0.0093   1.0000   1.0000   1.0000 101.0000
   6.500  -0.2526   0.25553   0.17065  -0.0086   1.0000   1.0000   1.0000 101.0000
   7.000  -0.2499   0.25276   0.16721  -0.0080   1.0000   1.0000   1.0000 101.0000
   7.500  -0.2448   0.25036   0.16422  -0.0077   1.0000   1.0000   1.0000 101.0000
   8.000  -0.2374   0.24830   0.16167  -0.0075   1.0000   1.0000   1.0000 101.0000
   8.500  -0.2280   0.24660   0.15965  -0.0075   1.0000   1.0000   1.0000 101.0000
   9.000  -0.2168   0.24523   0.15811  -0.0077   1.0000   1.0000   1.0000 101.0000
   9.500  -0.2039   0.24414   0.15705  -0.0080   1.0000   1.0000   1.0000 101.0000
  10.000  -0.1895   0.24333   0.15645  -0.0083   1.0000   1.0000   1.0000 101.0000
  10.500  -0.1739   0.24277   0.15629  -0.0088   1.0000   1.0000   1.0000 101.0000
  11.000  -0.1572   0.24244   0.15657  -0.0094   1.0000   1.0000   1.0000 101.0000
  11.500  -0.1396   0.24232   0.15727  -0.0100   1.0000   1.0000   1.0000 101.0000
  12.000  -0.1212   0.24239   0.15837  -0.0108   1.0000   1.0000   1.0000 101.0000
  12.500  -0.1020   0.24264   0.15986  -0.0116   1.0000   1.0000   1.0000 101.0000
  13.000  -0.0822   0.24305   0.16167  -0.0124   1.0000   1.0000   1.0000 101.0000
  13.500  -0.0619   0.24361   0.16390  -0.0133   1.0000   1.0000   1.0000 101.0000
  14.000  -0.0413   0.24432   0.16648  -0.0143   1.0000   1.0000   1.0000 101.0000
  14.500  -0.0203   0.24515   0.16940  -0.0153   1.0000   1.0000   1.0000 101.0000
  15.000   0.0009   0.24610   0.17264  -0.0164   1.0000   1.0000   1.0000 101.0000
