  
       XFOIL         Version 6.97
  
 Calculated polar for: 000003                                          
  
 1 1 Reynolds number fixed          Mach number fixed         
  
 xtrf =   1.000 (top)        1.000 (bottom)  
 Mach =   0.100     Re =     0.300 e 6     Ncrit =   9.000
  
   alpha    CL        CD       CDp       CM     Top_Xtr  Bot_Xtr
  ------ -------- --------- --------- -------- -------- --------
   2.000   0.4566   0.00809   0.00297  -0.0554   0.6992   0.9564
   3.000   0.6145   0.00844   0.00332  -0.0658   0.6472   1.0000
   4.000   0.6965   0.00891   0.00386  -0.0599   0.5870   1.0000
   5.000   0.7576   0.01064   0.00452  -0.0498   0.3277   1.0000
   7.000   0.8297   0.02193   0.01456  -0.0241   0.0088   1.0000
