  
       XFOIL         Version 6.97
  
 Calculated polar for: 000006                                          
  
 1 1 Reynolds number fixed          Mach number fixed         
  
 xtrf =   1.000 (top)        1.000 (bottom)  
 Mach =   0.100     Re =     0.300 e 6     Ncrit =   9.000
  
   alpha    CL        CD       CDp       CM     Top_Xtr  Bot_Xtr
  ------ -------- --------- --------- -------- -------- --------
   3.000   0.0769   0.08444   0.07872   0.0145   0.6283   0.7314
   5.000   0.1561   0.08602   0.08042   0.0265   0.6033   0.7552
   7.000   0.2083   0.08895   0.08359   0.0419   0.5733   0.7787
