  
       XFOIL         Version 6.97
  
 Calculated polar for: 000003                                          
  
 1 1 Reynolds number fixed          Mach number fixed         
  
 xtrf =   1.000 (top)        1.000 (bottom)  
 Mach =   0.040     Re =     0.300 e 6     Ncrit =   9.000
  
   alpha    CL        CD       CDp       CM     Top_Xtr  Bot_Xtr
  ------ -------- --------- --------- -------- -------- --------
   2.000   0.4562   0.00806   0.00295  -0.0556   0.7010   0.9577
   3.000   0.6117   0.00842   0.00328  -0.0656   0.6493   1.0000
   4.000   0.6937   0.00888   0.00383  -0.0599   0.5901   1.0000
   5.000   0.7574   0.01044   0.00443  -0.0504   0.3505   1.0000
   7.000   0.8288   0.02183   0.01442  -0.0247   0.0087   1.0000
