  
       XFOIL         Version 6.97
  
 Calculated polar for: 000004                                          
  
 1 1 Reynolds number fixed          Mach number fixed         
  
 xtrf =   1.000 (top)        1.000 (bottom)  
 Mach =   0.100     Re =     0.300 e 6     Ncrit =   9.000
  
   alpha    CL        CD       CDp       CM     Top_Xtr  Bot_Xtr
  ------ -------- --------- --------- -------- -------- --------
   3.000   0.1762   0.09486   0.08930  -0.0022   0.7016   0.7835
   4.000   0.1555   0.09769   0.09231   0.0137   0.6814   0.7914
   5.000   0.2080   0.09567   0.09036   0.0191   0.6777   0.8037
   6.000   0.2323   0.09960   0.09455   0.0258   0.6585   0.8074
