  
       XFOIL         Version 6.97
  
 Calculated polar for: 000013                                          
  
 1 1 Reynolds number fixed          Mach number fixed         
  
 xtrf =   1.000 (top)        1.000 (bottom)  
 Mach =   0.100     Re =     0.300 e 6     Ncrit =   9.000
  
   alpha    CL        CD       CDp       CM     Top_Xtr  Bot_Xtr
  ------ -------- --------- --------- -------- -------- --------
   2.000   1.0877   0.01660   0.00874  -0.1813   0.6174   0.1550
   3.000   1.1938   0.01660   0.00866  -0.1806   0.6044   0.1775
   4.000   1.2894   0.01698   0.00922  -0.1781   0.5909   0.2033
   5.000   1.3854   0.01752   0.00992  -0.1759   0.5781   0.2350
   6.000   1.4858   0.01808   0.01063  -0.1746   0.5657   0.2784
   7.000   1.5792   0.01863   0.01149  -0.1722   0.5525   0.3563
