  
       XFOIL         Version 6.97
  
 Calculated polar for: 000175                                          
  
 1 1 Reynolds number fixed          Mach number fixed         
  
 xtrf =   1.000 (top)        1.000 (bottom)  
 Mach =   0.040     Re =     0.300 e 6     Ncrit =   9.000
  
   alpha    CL        CD       CDp       CM     Top_Xtr  Bot_Xtr
  ------ -------- --------- --------- -------- -------- --------
   2.000   0.9686   0.01256   0.00502  -0.1987   0.5959   0.2241
   3.000   1.0712   0.01300   0.00551  -0.1965   0.5221   0.2861
   4.000   1.1227   0.01779   0.00924  -0.1850   0.0354   0.8756
   5.000   1.1776   0.02013   0.01184  -0.1726   0.0251   1.0001
   7.000   1.3088   0.03073   0.02274  -0.1552   0.0216   1.0001
