  
       XFOIL         Version 6.97
  
 Calculated polar for: 000292                                          
  
 1 1 Reynolds number fixed          Mach number fixed         
  
 xtrf =   1.000 (top)        1.000 (bottom)  
 Mach =   0.100     Re =     0.300 e 6     Ncrit =   9.000
  
   alpha    CL        CD       CDp       CM     Top_Xtr  Bot_Xtr
  ------ -------- --------- --------- -------- -------- --------
   2.000   1.0015   0.01772   0.01003  -0.1461   0.6021   0.1243
   3.000   1.1120   0.01753   0.00974  -0.1466   0.5932   0.1470
   4.000   1.2101   0.01781   0.01008  -0.1451   0.5823   0.1726
   5.000   1.3047   0.01841   0.01087  -0.1431   0.5724   0.2008
   6.000   1.4080   0.01876   0.01130  -0.1427   0.5633   0.2376
   7.000   1.4846   0.01991   0.01285  -0.1380   0.5519   0.2802
   8.000   1.5759   0.02081   0.01405  -0.1361   0.5425   0.3847
