  
       XFOIL         Version 6.97
  
 Calculated polar for: 000243                                          
  
 1 1 Reynolds number fixed          Mach number fixed         
  
 xtrf =   1.000 (top)        1.000 (bottom)  
 Mach =   0.100     Re =     0.300 e 6     Ncrit =   9.000
  
   alpha    CL        CD       CDp       CM     Top_Xtr  Bot_Xtr
  ------ -------- --------- --------- -------- -------- --------
   2.000   0.9077   0.01689   0.00881  -0.0976   0.5002   0.1576
   3.000   1.0146   0.01698   0.00892  -0.0965   0.4823   0.1779
   4.000   1.1179   0.01732   0.00923  -0.0949   0.4640   0.2028
   5.000   1.2157   0.01778   0.00980  -0.0930   0.4451   0.2343
   6.000   1.3061   0.01855   0.01069  -0.0903   0.4259   0.2773
   7.000   1.3818   0.01958   0.01206  -0.0862   0.4066   0.3837
