Job launching after 0.27 seconds in submission.
Running python job.
Changed into dir /home/simonx/Documents/Udacity/Projects/capstone/PESM_NSGA2_CST_XFoil
Importing evaluationFunctionXFoil.py
0
1
2
0.04
resp: 
 ===================================================
  XFOIL Version 6.97
  Copyright (C) 2000   Mark Drela, Harold Youngren

  This software comes with ABSOLUTELY NO WARRANTY,
    subject to the GNU General Public License.

  Caveat computor
 ===================================================

 File  xfoil.def  not found

   QUIT    Exit program

  .OPER    Direct operating point(s)
  .MDES    Complex mapping design routine
  .QDES    Surface speed design routine
  .GDES    Geometry design routine

   SAVE f  Write airfoil to labeled coordinate file
   PSAV f  Write airfoil to plain coordinate file
   ISAV f  Write airfoil to ISES coordinate file
   MSAV f  Write airfoil to MSES coordinate file
   REVE    Reverse written-airfoil node ordering
   DELI i  Change written-airfoil file delimiters

   LOAD f  Read buffer airfoil from coordinate file
   NACA i  Set NACA 4,5-digit airfoil and buffer airfoil
   INTE    Set buffer airfoil by interpolating two airfoils
   NORM    Buffer airfoil normalization toggle
   HALF    Halve the number of points in buffer airfoil
   XYCM rr Change CM reference location, currently  0.25000 0.00000

   BEND    Display structural properties of current airfoil

   PCOP    Set current-airfoil panel nodes directly from buffer airfoil points
   PANE    Set current-airfoil panel nodes ( 160 ) based on curvature
  .PPAR    Show/change paneling

  .PLOP    Plotting options

   WDEF f  Write  current-settings file
   RDEF f  Reread current-settings file
   NAME s  Specify new airfoil name
   NINC    Increment name version number

   Z       Zoom    | (available in all menus)
   U       Unzoom  | 

 XFOIL   c>   ...............................................

  G raphics-enable flag:        T
  S ize of plot object          10.00"
  A spect ratio of plot object   0.5500
  P age dimensions              11.00 x  8.50"
  M argins from page edges       0.00",  0.00"
  F ont size (relative)          0.0150
  W indow/screen size fraction   0.8000
  B lowup input method:        Cursor    
  O rientation of plot:        Landscape 
  C olor PostScript output?     F

      Option, Value   (or <Return>)    c>   ...............................................

  G raphics-enable flag:        F
  S ize of plot object          10.00"
  A spect ratio of plot object   0.5500
  P age dimensions              11.00 x  8.50"
  M argins from page edges       0.00",  0.00"
  F ont size (relative)          0.0150
  W indow/screen size fraction   0.8000
  B lowup input method:        Cursor    
  O rientation of plot:        Landscape 
  C olor PostScript output?     F

      Option, Value   (or <Return>)    c>  
 XFOIL   c>  
 Labeled airfoil file.  Name:  000059                                          

 Number of input coordinate points: 200
 Clockwise ordering
 Max thickness =     0.106324  at x =   0.391
 Max camber    =     0.019275  at x =   0.864

  LE  x,y  =  -0.00000  -0.00022  |   Chord =   0.99988
  TE  x,y  =   0.99988   0.00005  |

 Current airfoil nodes set from buffer airfoil nodes ( 200 )

 XFOIL   c>  
 You are working with the buffer airfoil

.GDES   c>  
  i       x        y      angle
   2   0.9990   0.0004    0.122
   3   0.9978   0.0010    0.248
   4   0.9961   0.0017    0.242
   5   0.9938   0.0026    0.338
   6   0.9911   0.0038    0.430
   7   0.9880   0.0051    0.448
   8   0.9843   0.0065    0.533
   9   0.9801   0.0081    0.601
  10   0.9755   0.0098    0.633
  11   0.9704   0.0117    0.698
  12   0.9649   0.0136    0.743
  13   0.9589   0.0156    0.786
  14   0.9524   0.0177    0.831
  15   0.9455   0.0198    0.854
  16   0.9382   0.0219    0.888
  17   0.9304   0.0240    0.907
  18   0.9222   0.0261    0.925
  19   0.9135   0.0281    0.931
  20   0.9045   0.0301    0.944
  21   0.8951   0.0320    0.939
  22   0.8853   0.0338    0.927
  23   0.8751   0.0355    0.916
  24   0.8645   0.0371    0.891
  25   0.8536   0.0386    0.866
  26   0.8423   0.0400    0.837
  27   0.8307   0.0412    0.796
  28   0.8187   0.0423    0.765
  29   0.8065   0.0433    0.716
  30   0.7939   0.0441    0.667
  31   0.7810   0.0448    0.618
  32   0.7679   0.0454    0.570
  33   0.7545   0.0458    0.514
  34   0.7409   0.0461    0.457
  35   0.7270   0.0464    0.413
  36   0.7129   0.0465    0.352
  37   0.6986   0.0465    0.298
  38   0.6841   0.0465    0.252
  39   0.6694   0.0464    0.204
  40   0.6545   0.0463    0.147
  41   0.6395   0.0461    0.111
  42   0.6243   0.0458    0.068
  43   0.6091   0.0456    0.027
  44   0.5937   0.0454   -0.006
  45   0.5782   0.0451   -0.041
  46   0.5627   0.0449   -0.062
  47   0.5471   0.0446   -0.087
  48   0.5314   0.0444   -0.107
  49   0.5157   0.0443   -0.125
  50   0.5000   0.0441   -0.128
  51   0.4843   0.0440   -0.138
  52   0.4686   0.0440   -0.139
  53   0.4529   0.0439   -0.135
  54   0.4373   0.0439   -0.133
  55   0.4218   0.0440   -0.116
  56   0.4063   0.0441   -0.106
  57   0.3909   0.0442   -0.085
  58   0.3757   0.0443   -0.068
  59   0.3605   0.0444   -0.039
  60   0.3455   0.0446   -0.014
  61   0.3306   0.0447    0.017
  62   0.3159   0.0449    0.048
  63   0.3014   0.0450    0.081
  64   0.2871   0.0451    0.123
  65   0.2730   0.0452    0.152
  66   0.2591   0.0452    0.203
  67   0.2455   0.0452    0.232
  68   0.2321   0.0452    0.285
  69   0.2190   0.0451    0.324
  70   0.2061   0.0449    0.367
  71   0.1935   0.0446    0.414
  72   0.1813   0.0442    0.460
  73   0.1693   0.0438    0.512
  74   0.1577   0.0433    0.555
  75   0.1464   0.0426    0.607
  76   0.1355   0.0419    0.662
  77   0.1249   0.0411    0.724
  78   0.1147   0.0402    0.777
  79   0.1049   0.0391    0.845
  80   0.0955   0.0380    0.908
  81   0.0865   0.0368    0.990
  82   0.0778   0.0355    1.073
  83   0.0696   0.0341    1.176
  84   0.0618   0.0326    1.268
  85   0.0545   0.0310    1.417
  86   0.0476   0.0293    1.552
  87   0.0411   0.0276    1.731
  88   0.0351   0.0257    1.958
  89   0.0296   0.0238    2.203
  90   0.0245   0.0219    2.543
  91   0.0199   0.0198    2.938
  92   0.0157   0.0178    3.480
  93   0.0120   0.0157    4.107
  94   0.0089   0.0135    4.987
  95   0.0062   0.0113    6.032
  96   0.0039   0.0091    7.360
  97   0.0022   0.0068    8.963
  98   0.0010   0.0046   10.526
  99   0.0002   0.0023   11.824
 100   0.0000   0.0000   10.868
 101   0.0002  -0.0030    9.201
 102   0.0010  -0.0060    8.708
 103   0.0022  -0.0090    8.014
 104   0.0039  -0.0119    7.211
 105   0.0062  -0.0147    6.376
 106   0.0089  -0.0175    5.631
 107   0.0120  -0.0202    4.903
 108   0.0157  -0.0228    4.318
 109   0.0199  -0.0253    3.771
 110   0.0245  -0.0276    3.297
 111   0.0296  -0.0299    2.895
 112   0.0351  -0.0320    2.542
 113   0.0411  -0.0340    2.211
 114   0.0476  -0.0359    1.955
 115   0.0545  -0.0377    1.694
 116   0.0618  -0.0393    1.477
 117   0.0696  -0.0408    1.285
 118   0.0778  -0.0422    1.108
 119   0.0865  -0.0436    0.948
 120   0.0955  -0.0448    0.808
 121   0.1049  -0.0459    0.683
 122   0.1147  -0.0470    0.571
 123   0.1249  -0.0480    0.478
 124   0.1355  -0.0490    0.394
 125   0.1464  -0.0499    0.315
 126   0.1577  -0.0508    0.264
 127   0.1693  -0.0517    0.206
 128   0.1813  -0.0525    0.173
 129   0.1935  -0.0534    0.148
 130   0.2061  -0.0542    0.128
 131   0.2190  -0.0550    0.115
 132   0.2321  -0.0558    0.119
 133   0.2455  -0.0566    0.125
 134   0.2591  -0.0573    0.142
 135   0.2730  -0.0581    0.162
 136   0.2871  -0.0588    0.191
 137   0.3014  -0.0595    0.222
 138   0.3159  -0.0601    0.265
 139   0.3306  -0.0607    0.303
 140   0.3455  -0.0612    0.344
 141   0.3605  -0.0616    0.389
 142   0.3757  -0.0620    0.437
 143   0.3909  -0.0622    0.482
 144   0.4063  -0.0622    0.524
 145   0.4218  -0.0622    0.570
 146   0.4373  -0.0620    0.606
 147   0.4529  -0.0616    0.639
 148   0.4686  -0.0610    0.674
 149   0.4843  -0.0603    0.696
 150   0.5000  -0.0593    0.712
 151   0.5157  -0.0582    0.726
 152   0.5314  -0.0569    0.732
 153   0.5471  -0.0554    0.728
 154   0.5627  -0.0536    0.716
 155   0.5782  -0.0517    0.697
 156   0.5937  -0.0496    0.670
 157   0.6091  -0.0473    0.634
 158   0.6243  -0.0449    0.594
 159   0.6395  -0.0424    0.547
 160   0.6545  -0.0397    0.481
 161   0.6694  -0.0369    0.427
 162   0.6841  -0.0340    0.355
 163   0.6986  -0.0311    0.279
 164   0.7129  -0.0281    0.205
 165   0.7270  -0.0251    0.119
 166   0.7409  -0.0222    0.035
 167   0.7545  -0.0192   -0.058
 168   0.7679  -0.0164   -0.146
 169   0.7810  -0.0136   -0.238
 170   0.7939  -0.0110   -0.334
 171   0.8065  -0.0085   -0.421
 172   0.8187  -0.0061   -0.518
 173   0.8307  -0.0039   -0.605
 174   0.8423  -0.0019   -0.691
 175   0.8536  -0.0002   -0.776
 176   0.8645   0.0014   -0.850
 177   0.8751   0.0028   -0.922
 178   0.8853   0.0040   -0.990
 179   0.8951   0.0049   -1.038
 180   0.9045   0.0057   -1.091
 181   0.9135   0.0062   -1.126
 182   0.9222   0.0065   -1.147
 183   0.9304   0.0067   -1.176
 184   0.9382   0.0067   -1.165
 185   0.9455   0.0065   -1.171
 186   0.9524   0.0063   -1.138
 187   0.9589   0.0059   -1.118
 188   0.9649   0.0054   -1.068
 189   0.9704   0.0048   -1.018
 190   0.9755   0.0042   -0.957
 191   0.9801   0.0036   -0.881
 192   0.9843   0.0030   -0.811
 193   0.9880   0.0024   -0.722
 194   0.9911   0.0018   -0.629
 195   0.9938   0.0013   -0.508
 196   0.9961   0.0008   -0.454
 197   0.9978   0.0005   -0.351
 198   0.9990   0.0002   -0.151
 199   0.9998   0.0001   -0.131

 Maximum panel corner angle = 11.824   at  i,x,y  =  99   0.0002   0.0023

 Enter corner angle criterion for refinement (deg):   5.912
 Enter type of spline parameter (1=uniform, 2=arclength):   1
 Enter refinement x limits:  -0.10000   1.10000
 Number of points added:           22
 Max thickness =     0.106324  at x =   0.391
 Max camber    =     0.019245  at x =   0.864

 Maximum panel corner angle =  4.903   at  i,x,y  = 129   0.0120  -0.0202

.GDES   c>  
 Buffer airfoil is not identical to current airfoil

 XFOIL   c>  
 Blunt trailing edge.  Gap =  0.00027

 Paneling parameters used...
   Number of panel nodes       160
   Panel bunching parameter    1.000
   TE/LE panel density ratio   0.150
   Refined-area/LE panel density ratio    0.200
   Top    side refined area x/c limits  1.000 1.000
   Bottom side refined area x/c limits  1.000 1.000

 XFOIL   c>  
Enter output filename   s>  
 XFOIL   c>  
.OPERi   c>   Current iteration limit:          20

Enter new iteration limit   i>  
Enter new iteration limit   i>  
Enter new iteration limit   i>  
.OPERi   c>  
 M  =    0.0000
 Re =  0.3000E+06

.OPERv   c>  
 Sonic Cp =   -420.65      Sonic Q/Qinf =    22.825


.OPERv   c>  
 Polar  1 newly created for accumulation
 Airfoil archived with polar: 000059                                          

Enter  polar save filename  OR  <return> for no file   s>  
 New polar save file available

Enter  polar dump filename  OR  <return> for no file   s>  
 Polar dump file will NOT be written

 Polar accumulation enabled

.OPERva   c>   Calculating unit vorticity distributions ...
 Calculating wake trajectory ...
 Calculating source influence matrix ...

 Solving BL system ...

 Initializing BL ...
    side            1  ...
 MRCHUE: Inverse mode at  30     Hk =   4.541
 MRCHUE: Inverse mode at  31     Hk =   5.498
 MRCHUE: Inverse mode at  32     Hk =   6.426
 MRCHUE: Inverse mode at  33     Hk =   7.334
 MRCHUE: Inverse mode at  34     Hk =   8.225
 MRCHUE: Inverse mode at  35     Hk =   4.345
 MRCHUE: Inverse mode at  36     Hk =   2.500
 MRCHUE: Inverse mode at  85     Hk =   2.500
 MRCHUE: Convergence failed at  86  side 1    Res =  0.6420E+01
    side            2  ...
 MRCHUE: Inverse mode at  49     Hk =   3.996
 MRCHUE: Inverse mode at  50     Hk =   4.521
 MRCHUE: Inverse mode at  51     Hk =   5.037
 MRCHUE: Inverse mode at  52     Hk =   5.544
 MRCHUE: Inverse mode at  53     Hk =   6.047
 MRCHUE: Inverse mode at  54     Hk =   6.546
 MRCHUE: Inverse mode at  55     Hk =   7.043
 MRCHUE: Inverse mode at  56     Hk =   7.539
 MRCHUE: Inverse mode at  57     Hk =   8.033
 MRCHUE: Inverse mode at  58     Hk =   8.523
 MRCHUE: Inverse mode at  59     Hk =   9.005
 MRCHUE: Inverse mode at  60     Hk =   9.476
 MRCHUE: Inverse mode at  61     Hk =   9.256
 MRCHUE: Inverse mode at  62     Hk =   7.275
 MRCHUE: Inverse mode at  63     Hk =   6.032
 MRCHUE: Inverse mode at  64     Hk =   5.118
 MRCHUE: Inverse mode at  65     Hk =   4.397
 MRCHUE: Inverse mode at  66     Hk =   3.805
 MRCHUE: Inverse mode at  67     Hk =   3.309
 MRCHUE: Inverse mode at  68     Hk =   2.884
 MRCHUE: Inverse mode at  69     Hk =   2.506
 MRCHUE: Inverse mode at  70     Hk =   2.500
 MRCHUE: Inverse mode at  71     Hk =   2.500
 MRCHUE: Inverse mode at  72     Hk =   2.500
 MRCHUE: Inverse mode at  73     Hk =   2.500
 MRCHUE: Inverse mode at  74     Hk =   2.500
 MRCHUE: Inverse mode at  76     Hk =   2.500

 MRCHDU: Convergence failed at  86  side 1    Res =  0.6136E+01
 Side 1  free  transition at x/c =  0.1836   35
 Side 2  free  transition at x/c =  0.8008   61

   1   rms: 0.6961E+00   max: -.5821E+01   T at   35  1   RLX: 0.086
       a =  2.000      CL =  0.5568
      Cm = -0.0909     CD =  0.00804   =>   CDf =  0.00812    CDp = -0.00008

 Side 1  free  transition at x/c =  0.1915   35
 Side 2  free  transition at x/c =  0.7982   61

   2   rms: 0.4782E+00   max: -.3583E+01   T at   35  1   RLX: 0.140
       a =  2.000      CL =  0.4929
      Cm = -0.0785     CD =  0.00904   =>   CDf =  0.00816    CDp =  0.00088

 Side 1  free  transition at x/c =  0.2037   35
 Side 2  free  transition at x/c =  0.7938   62

   3   rms: 0.4379E+00   max: -.3448E+01   T at   35  1   RLX: 0.145
       a =  2.000      CL =  0.4458
      Cm = -0.0699     CD =  0.00854   =>   CDf =  0.00787    CDp =  0.00067

 Side 1  free  transition at x/c =  0.2138   35
 Side 2  free  transition at x/c =  0.7909   62

   4   rms: 0.2891E+00   max: -.2419E+01   T at   35  1   RLX: 0.207
       a =  2.000      CL =  0.4111
      Cm = -0.0644     CD =  0.00963   =>   CDf =  0.00792    CDp =  0.00171

 Side 1  free  transition at x/c =  0.2279   36
 Side 2  free  transition at x/c =  0.7875   61

   5   rms: 0.4032E+00   max: 0.3101E+01   T at   61  2   RLX: 0.269
       a =  2.000      CL =  0.3975
      Cm = -0.0604     CD =  0.01149   =>   CDf =  0.00780    CDp =  0.00370

 Side 1  free  transition at x/c =  0.2445   37
 Side 2  free  transition at x/c =  0.7679   60

   6   rms: 0.1552E+00   max: -.1493E+01   T at   37  1   RLX: 0.335
       a =  2.000      CL =  0.3776
      Cm = -0.0583     CD =  0.01352   =>   CDf =  0.00760    CDp =  0.00592

 Side 1  free  transition at x/c =  0.2691   38
 Side 2  free  transition at x/c =  0.7626   61

   7   rms: 0.1483E+00   max: -.1337E+01   C at   38  1   RLX: 0.374
       a =  2.000      CL =  0.3747
      Cm = -0.0585     CD =  0.01348   =>   CDf =  0.00730    CDp =  0.00617

 Side 1  free  transition at x/c =  0.2892   39
 Side 2  free  transition at x/c =  0.7605   61

   8   rms: 0.9393E-01   max: -.9553E+00   C at   39  1   RLX: 0.523
       a =  2.000      CL =  0.3773
      Cm = -0.0600     CD =  0.01397   =>   CDf =  0.00716    CDp =  0.00681

 Side 1  free  transition at x/c =  0.3088   40
 Side 2  free  transition at x/c =  0.7588   61

   9   rms: 0.5088E-01   max: -.5654E+00   C at   40  1   RLX: 0.884
       a =  2.000      CL =  0.3851
      Cm = -0.0626     CD =  0.01437   =>   CDf =  0.00706    CDp =  0.00731

 Side 1  free  transition at x/c =  0.3309   41
 Side 2  free  transition at x/c =  0.7576   61

  10   rms: 0.1590E-01   max: -.1503E+00   D at   41  1
       a =  2.000      CL =  0.3862
      Cm = -0.0629     CD =  0.01467   =>   CDf =  0.00705    CDp =  0.00762

 Side 1  free  transition at x/c =  0.3443   42
 Side 2  free  transition at x/c =  0.7571   61

  11   rms: 0.1146E-01   max: 0.2030E+00   C at   42  1
       a =  2.000      CL =  0.3874
      Cm = -0.0631     CD =  0.01459   =>   CDf =  0.00686    CDp =  0.00772

 Side 1  free  transition at x/c =  0.3409   42
 Side 2  free  transition at x/c =  0.7571   61

  12   rms: 0.1084E-02   max: -.1589E-01   D at   44  1
       a =  2.000      CL =  0.3874
      Cm = -0.0631     CD =  0.01458   =>   CDf =  0.00689    CDp =  0.00769

 Side 1  free  transition at x/c =  0.3403   42
 Side 2  free  transition at x/c =  0.7571   61

  13   rms: 0.1214E-04   max: -.1333E-03   D at   44  1
       a =  2.000      CL =  0.3874
      Cm = -0.0631     CD =  0.01458   =>   CDf =  0.00690    CDp =  0.00768

 Point added to stored polar  1
 Point written to save file  000059M0.04.log                                 
 Dump file unspecified or not available
 Calculating wake trajectory ...
 Calculating source influence matrix ...

 Solving BL system ...

 Side 1  free  transition at x/c =  0.3403   42
 Side 2  free  transition at x/c =  0.7571   61

   1   rms: 0.1974E+00   max: 0.1760E+01   C at   42  1   RLX: 0.456
       a =  3.000      CL =  0.4334
      Cm = -0.0619     CD =  0.01494   =>   CDf =  0.00683    CDp =  0.00811

 Side 1  free  transition at x/c =  0.2960   40
 Side 2  free  transition at x/c =  0.7595   60

   2   rms: 0.1052E+00   max: -.6927E+00   C at   40  1   RLX: 0.722
       a =  3.000      CL =  0.4767
      Cm = -0.0616     CD =  0.01485   =>   CDf =  0.00701    CDp =  0.00783

 Side 1  free  transition at x/c =  0.2598   39
 Side 2  free  transition at x/c =  0.7623   59

   3   rms: 0.1558E+00   max: 0.2664E+01   D at    2  1   RLX: 0.423
       a =  3.000      CL =  0.4840
      Cm = -0.0618     CD =  0.01534   =>   CDf =  0.00719    CDp =  0.00815

 Side 1  free  transition at x/c =  0.2535   39
 Side 2  free  transition at x/c =  0.7629   59

   4   rms: 0.2065E-01   max: -.2131E+00   D at   39  1
       a =  3.000      CL =  0.4947
      Cm = -0.0622     CD =  0.01530   =>   CDf =  0.00718    CDp =  0.00812

 Side 1  free  transition at x/c =  0.2456   38
 Side 2  free  transition at x/c =  0.7637   59

   5   rms: 0.2452E-02   max: -.3872E-01   C at   38  1
       a =  3.000      CL =  0.4945
      Cm = -0.0622     CD =  0.01531   =>   CDf =  0.00722    CDp =  0.00808

 Side 1  free  transition at x/c =  0.2456   38
 Side 2  free  transition at x/c =  0.7638   59

   6   rms: 0.5364E-04   max: -.6689E-03   D at   40  1
       a =  3.000      CL =  0.4945
      Cm = -0.0622     CD =  0.01531   =>   CDf =  0.00721    CDp =  0.00810

 Point added to stored polar  1
 Point written to save file  000059M0.04.log                                 
 Dump file unspecified or not available
 Calculating wake trajectory ...
 Calculating source influence matrix ...

 Solving BL system ...

 Side 1  free  transition at x/c =  0.2456   38
 Side 2  free  transition at x/c =  0.7638   59

   1   rms: 0.1805E+00   max: 0.9793E+00   T at   38  1   RLX: 0.691
       a =  4.000      CL =  0.5759
      Cm = -0.0631     CD =  0.01542   =>   CDf =  0.00713    CDp =  0.00829

 Side 1  free  transition at x/c =  0.1875   36
 Side 2  free  transition at x/c =  0.7704   58

   2   rms: 0.8934E-01   max: -.7387E+00   D at   36  1   RLX: 0.677
       a =  4.000      CL =  0.6103
      Cm = -0.0661     CD =  0.01607   =>   CDf =  0.00747    CDp =  0.00860

 Side 1  free  transition at x/c =  0.1658   34
 Side 2  free  transition at x/c =  0.7747   59

   3   rms: 0.4095E-01   max: -.3835E+00   C at   34  1
       a =  4.000      CL =  0.6153
      Cm = -0.0648     CD =  0.01606   =>   CDf =  0.00757    CDp =  0.00849

 Side 1  free  transition at x/c =  0.1535   34
 Side 2  free  transition at x/c =  0.7734   59

   4   rms: 0.4096E-02   max: -.5912E-01   D at   34  1
       a =  4.000      CL =  0.6150
      Cm = -0.0648     CD =  0.01613   =>   CDf =  0.00757    CDp =  0.00856

 Side 1  free  transition at x/c =  0.1534   34
 Side 2  free  transition at x/c =  0.7735   59

   5   rms: 0.1949E-03   max: -.2562E-02   D at   35  1
       a =  4.000      CL =  0.6150
      Cm = -0.0648     CD =  0.01613   =>   CDf =  0.00757    CDp =  0.00857

 Side 1  free  transition at x/c =  0.1533   34
 Side 2  free  transition at x/c =  0.7735   59

   6   rms: 0.2251E-05   max: -.1154E-04   T at   59  2
       a =  4.000      CL =  0.6150
      Cm = -0.0648     CD =  0.01613   =>   CDf =  0.00757    CDp =  0.00857

 Point added to stored polar  1
 Point written to save file  000059M0.04.log                                 
 Dump file unspecified or not available
 Calculating wake trajectory ...
 Calculating source influence matrix ...

 Solving BL system ...

 Side 1  free  transition at x/c =  0.1533   34
 Side 2  free  transition at x/c =  0.7735   59

   1   rms: 0.2374E+00   max: -.1980E+01   D at   34  1   RLX: 0.252
       a =  5.000      CL =  0.6414
      Cm = -0.0646     CD =  0.01658   =>   CDf =  0.00757    CDp =  0.00901

 Side 1  free  transition at x/c =  0.1353   32
 Side 2  free  transition at x/c =  0.7749   59

   2   rms: 0.1624E+00   max: -.1536E+01   C at   32  1   RLX: 0.325
       a =  5.000      CL =  0.6690
      Cm = -0.0643     CD =  0.01658   =>   CDf =  0.00756    CDp =  0.00902

 Side 1  free  transition at x/c =  0.1162   32
 Side 2  free  transition at x/c =  0.7765   58

   3   rms: 0.1037E+00   max: 0.7900E+00   T at   32  1   RLX: 0.733
       a =  5.000      CL =  0.7092
      Cm = -0.0640     CD =  0.01703   =>   CDf =  0.00770    CDp =  0.00933

 Side 1  free  transition at x/c =  0.0953   31
 Side 2  free  transition at x/c =  0.7792   58

   4   rms: 0.7327E-01   max: -.7184E+00   D at   31  1   RLX: 0.696
       a =  5.000      CL =  0.7172
      Cm = -0.0638     CD =  0.01749   =>   CDf =  0.00774    CDp =  0.00975

 Side 1  free  transition at x/c =  0.0916   30
 Side 2  free  transition at x/c =  0.7803   58

   5   rms: 0.2732E-01   max: -.2448E+00   D at   31  1
       a =  5.000      CL =  0.7242
      Cm = -0.0643     CD =  0.01745   =>   CDf =  0.00776    CDp =  0.00969

 Side 1  free  transition at x/c =  0.0851   30
 Side 2  free  transition at x/c =  0.7806   58

   6   rms: 0.4504E-02   max: -.6159E-01   D at   30  1
       a =  5.000      CL =  0.7238
      Cm = -0.0643     CD =  0.01763   =>   CDf =  0.00778    CDp =  0.00985

 Side 1  free  transition at x/c =  0.0850   30
 Side 2  free  transition at x/c =  0.7806   58

   7   rms: 0.1250E-03   max: 0.1260E-02   D at   30  1
       a =  5.000      CL =  0.7238
      Cm = -0.0643     CD =  0.01764   =>   CDf =  0.00779    CDp =  0.00985

 Side 1  free  transition at x/c =  0.0850   30
 Side 2  free  transition at x/c =  0.7806   58

   8   rms: 0.2110E-05   max: -.1330E-04   T at   58  2
       a =  5.000      CL =  0.7238
      Cm = -0.0643     CD =  0.01764   =>   CDf =  0.00779    CDp =  0.00985

 Point added to stored polar  1
 Point written to save file  000059M0.04.log                                 
 Dump file unspecified or not available
 Calculating wake trajectory ...
 Calculating source influence matrix ...

 Solving BL system ...

 Side 1  free  transition at x/c =  0.0850   30
 Side 2  free  transition at x/c =  0.7806   58

   1   rms: 0.2173E+00   max: 0.1614E+01   T at   30  1   RLX: 0.351
       a =  6.000      CL =  0.7633
      Cm = -0.0644     CD =  0.01830   =>   CDf =  0.00766    CDp =  0.01064

 Side 1  free  transition at x/c =  0.0729   30
 Side 2  free  transition at x/c =  0.7840   57

   2   rms: 0.1423E+00   max: -.1010E+01   D at   31  1   RLX: 0.495
       a =  6.000      CL =  0.8022
      Cm = -0.0651     CD =  0.01893   =>   CDf =  0.00780    CDp =  0.01113

 Side 1  free  transition at x/c =  0.0645   29
 Side 2  free  transition at x/c =  0.7874   57

   3   rms: 0.9147E-01   max: 0.5988E+00   T at   29  1   RLX: 0.886
       a =  6.000      CL =  0.8430
      Cm = -0.0673     CD =  0.01910   =>   CDf =  0.00766    CDp =  0.01145

 Side 1  free  transition at x/c =  0.0558   29
 Side 2  free  transition at x/c =  0.7932   57

   4   rms: 0.7807E-01   max: -.8479E+00   T at    2  1   RLX: 0.590
       a =  6.000      CL =  0.8389
      Cm = -0.0655     CD =  0.01992   =>   CDf =  0.00802    CDp =  0.01190

 Side 1  free  transition at x/c =  0.0551   28
 Side 2  free  transition at x/c =  0.7913   58

   5   rms: 0.2318E-01   max: 0.1489E+00   D at   59  2
       a =  6.000      CL =  0.8378
      Cm = -0.0652     CD =  0.01979   =>   CDf =  0.00784    CDp =  0.01195

 Side 1  free  transition at x/c =  0.0544   28
 Side 2  free  transition at x/c =  0.7900   58

   6   rms: 0.8534E-03   max: 0.7471E-02   D at    4  2
       a =  6.000      CL =  0.8381
      Cm = -0.0653     CD =  0.01982   =>   CDf =  0.00783    CDp =  0.01199

 Side 1  free  transition at x/c =  0.0543   28
 Side 2  free  transition at x/c =  0.7900   58

   7   rms: 0.2829E-05   max: -.2025E-04   D at   28  1
       a =  6.000      CL =  0.8381
      Cm = -0.0653     CD =  0.01982   =>   CDf =  0.00783    CDp =  0.01199

 Point added to stored polar  1
 Point written to save file  000059M0.04.log                                 
 Dump file unspecified or not available
 Calculating wake trajectory ...
 Calculating source influence matrix ...

 Solving BL system ...

 Side 1  free  transition at x/c =  0.0543   28
 Side 2  free  transition at x/c =  0.7900   58

   1   rms: 0.1783E+00   max: 0.1270E+01   T at   28  1   RLX: 0.897
       a =  7.000      CL =  0.9299
      Cm = -0.0630     CD =  0.02135   =>   CDf =  0.00747    CDp =  0.01388

 MRCHDU: Convergence failed at  30  side 1    Res =  0.4849E+01
 MRCHDU: Convergence failed at  31  side 1    Res =  0.1540E+02
 MRCHDU: Convergence failed at  32  side 1    Res =  0.1169E+02
 MRCHDU: Convergence failed at  33  side 1    Res =  0.1214E+02
 MRCHDU: Convergence failed at  34  side 1    Res =  0.1402E+02
 MRCHDU: Convergence failed at  35  side 1    Res =  0.1785E+02
 MRCHDU: Convergence failed at  36  side 1    Res =  0.2581E+02
 MRCHDU: Convergence failed at  37  side 1    Res =  0.7144E+02
 MRCHDU: Convergence failed at  38  side 1    Res =  0.3477E+02
 MRCHDU: Convergence failed at  39  side 1    Res =  0.2758E+02
 MRCHDU: Convergence failed at  40  side 1    Res =  0.2460E+02
 MRCHDU: Convergence failed at  41  side 1    Res =  0.2232E+02
 MRCHDU: Convergence failed at  42  side 1    Res =  0.2012E+02
 MRCHDU: Convergence failed at  43  side 1    Res =  0.9579E+02
 MRCHDU: Convergence failed at  44  side 1    Res =  0.4837E+03
 MRCHDU: Convergence failed at  45  side 1    Res =  0.1979E+03
 MRCHDU: Convergence failed at  46  side 1    Res =  0.9400E+02
 MRCHDU: Convergence failed at  47  side 1    Res =  0.6844E+02
 MRCHDU: Convergence failed at  48  side 1    Res =  0.3632E+02
 MRCHDU: Convergence failed at  49  side 1    Res =  0.3718E+02
 MRCHDU: Convergence failed at  50  side 1    Res =  0.3626E+02
 MRCHDU: Convergence failed at  51  side 1    Res =  0.3751E+02
 MRCHDU: Convergence failed at  52  side 1    Res =  0.4518E+02
 MRCHDU: Convergence failed at  53  side 1    Res =  0.6059E+02
 MRCHDU: Convergence failed at  54  side 1    Res =  0.2303E+02
 MRCHDU: Convergence failed at  55  side 1    Res =  0.2233E+02
 MRCHDU: Convergence failed at  56  side 1    Res =  0.3645E+02
 MRCHDU: Convergence failed at  57  side 1    Res =  0.2800E+02
 MRCHDU: Convergence failed at  58  side 1    Res =  0.3170E+02
 MRCHDU: Convergence failed at  59  side 1    Res =  0.2452E+02
 MRCHDU: Convergence failed at  60  side 1    Res =  0.3462E+02
 MRCHDU: Convergence failed at  61  side 1    Res =  0.2872E+02
 MRCHDU: Convergence failed at  62  side 1    Res =  0.3095E+02
 MRCHDU: Convergence failed at  63  side 1    Res =  0.3009E+02
 MRCHDU: Convergence failed at  64  side 1    Res =  0.2999E+02
 MRCHDU: Convergence failed at  65  side 1    Res =  0.2880E+02
 MRCHDU: Convergence failed at  66  side 1    Res =  0.2802E+02
 MRCHDU: Convergence failed at  67  side 1    Res =  0.3223E+02
 MRCHDU: Convergence failed at  68  side 1    Res =  0.4776E+03
 MRCHDU: Convergence failed at  69  side 1    Res =  0.1794E+03
 MRCHDU: Convergence failed at  70  side 1    Res =  0.8954E+04
 MRCHDU: Convergence failed at  71  side 1    Res =  0.7691E+02
 MRCHDU: Convergence failed at  72  side 1    Res =  0.7107E+02
 MRCHDU: Convergence failed at  73  side 1    Res =  0.4843E+03
 MRCHDU: Convergence failed at  74  side 1    Res =  0.8522E+02
 MRCHDU: Convergence failed at  75  side 1    Res =  0.8494E+02
 MRCHDU: Convergence failed at  76  side 1    Res =  0.6371E+03
 MRCHDU: Convergence failed at  77  side 1    Res =  0.8562E+02
 MRCHDU: Convergence failed at  78  side 1    Res =  0.1235E+03
 MRCHDU: Convergence failed at  79  side 1    Res =  0.1430E+03
 MRCHDU: Convergence failed at  80  side 1    Res =  0.3094E+02
 MRCHDU: Convergence failed at  81  side 1    Res =  0.3090E+02
 MRCHDU: Convergence failed at  82  side 1    Res =  0.2773E+02
 MRCHDU: Convergence failed at  83  side 1    Res =  0.4081E+02
 MRCHDU: Convergence failed at  84  side 1    Res =  0.6593E+02
 MRCHDU: Convergence failed at  85  side 1    Res =  0.2299E+04
 MRCHDU: Convergence failed at  86  side 1    Res =  0.2287E+03
 MRCHDU: Convergence failed at  87  side 1    Res =  0.4077E+02
 MRCHDU: Convergence failed at  88  side 1    Res =  0.7140E+02
 MRCHDU: Convergence failed at  89  side 1    Res =  0.1521E+03
 MRCHDU: Convergence failed at  90  side 1    Res =  0.1920E+03
 MRCHDU: Convergence failed at  91  side 1    Res =  0.1281E+03
 Side 1  free  transition at x/c =  0.0435   29
 Side 2  free  transition at x/c =  0.7966   56

   2   rms: 0.1170E+01   max: 0.4334E+01   D at   73  2   RLX: 0.346
       a =  7.000      CL =  2.0944
      Cm = -0.4635     CD =  0.01172   =>   CDf =  0.00227    CDp =  0.00945

 MRCHDU: Convergence failed at  58  side 1    Res =  0.4127E+00
 MRCHDU: Convergence failed at  59  side 1    Res =  0.4112E+00
 MRCHDU: Convergence failed at  60  side 1    Res =  0.4118E+00
 MRCHDU: Convergence failed at  61  side 1    Res =  0.4136E+00
 MRCHDU: Convergence failed at  62  side 1    Res =  0.4164E+00
 MRCHDU: Convergence failed at  63  side 1    Res =  0.4200E+00
 MRCHDU: Convergence failed at  64  side 1    Res =  0.4244E+00
 MRCHDU: Convergence failed at  65  side 1    Res =  0.4290E+00
 MRCHDU: Convergence failed at  66  side 1    Res =  0.4342E+00
 MRCHDU: Convergence failed at  67  side 1    Res =  0.4395E+00
 MRCHDU: Convergence failed at  68  side 1    Res =  0.4448E+00
 MRCHDU: Convergence failed at  69  side 1    Res =  0.4500E+00
 MRCHDU: Convergence failed at  70  side 1    Res =  0.4549E+00
 MRCHDU: Convergence failed at  71  side 1    Res =  0.4592E+00
 MRCHDU: Convergence failed at  72  side 1    Res =  0.4630E+00
 MRCHDU: Convergence failed at  73  side 1    Res =  0.4660E+00
 MRCHDU: Convergence failed at  74  side 1    Res =  0.4679E+00
 MRCHDU: Convergence failed at  75  side 1    Res =  0.4688E+00
 MRCHDU: Convergence failed at  76  side 1    Res =  0.4684E+00
 MRCHDU: Convergence failed at  77  side 1    Res =  0.4669E+00
 MRCHDU: Convergence failed at  78  side 1    Res =  0.4640E+00
 MRCHDU: Convergence failed at  79  side 1    Res =  0.4593E+00
 MRCHDU: Convergence failed at  80  side 1    Res =  0.4533E+00
 MRCHDU: Convergence failed at  81  side 1    Res =  0.4456E+00
 MRCHDU: Convergence failed at  82  side 1    Res =  0.4365E+00
 MRCHDU: Convergence failed at  83  side 1    Res =  0.4253E+00
 MRCHDU: Convergence failed at  84  side 1    Res =  0.4129E+00
 MRCHDU: Convergence failed at  85  side 1    Res =  0.3995E+00
 MRCHDU: Convergence failed at  86  side 1    Res =  0.3846E+00
 MRCHDU: Convergence failed at  87  side 1    Res =  0.3705E+00
 MRCHDU: Convergence failed at  88  side 1    Res =  0.3596E+00
 MRCHDU: Convergence failed at  89  side 1    Res =  0.3539E+00
 MRCHDU: Convergence failed at  90  side 1    Res =  0.3532E+00
 MRCHDU: Convergence failed at  74  side 2    Res =  0.2981E+02
 MRCHDU: Convergence failed at  75  side 2    Res =  0.1123E+02
 MRCHDU: Convergence failed at  76  side 2    Res =  0.5523E+01
 MRCHDU: Convergence failed at  77  side 2    Res =  0.4520E+01
 MRCHDU: Convergence failed at  78  side 2    Res =  0.9657E+02
 MRCHDU: Convergence failed at  79  side 2    Res =  0.7905E+01
 MRCHDU: Convergence failed at  80  side 2    Res =  0.4659E+01
 MRCHDU: Convergence failed at  81  side 2    Res =  0.9910E+01
 MRCHDU: Convergence failed at  82  side 2    Res =  0.1092E+02
 MRCHDU: Convergence failed at  83  side 2    Res =  0.6578E+01
 MRCHDU: Convergence failed at  84  side 2    Res =  0.3566E+01
 MRCHDU: Convergence failed at  85  side 2    Res =  0.2876E+01
 MRCHDU: Convergence failed at  86  side 2    Res =  0.2737E+01
 MRCHDU: Convergence failed at  87  side 2    Res =  0.3169E+01
 Side 1  free  transition at x/c =  0.0410   27
 Side 2  free  transition at x/c =  0.8002   57

   3   rms: 0.5575E+01   max: -.2014E+02   D at   28  1   RLX: 0.019
       a =  7.000      CL =  1.3221
      Cm = -0.2150     CD =  0.05295   =>   CDf =  0.00232    CDp =  0.05062

 MRCHDU: Convergence failed at  29  side 1    Res =  0.1499E+02
 MRCHDU: Convergence failed at  30  side 1    Res =  0.1857E+02
 MRCHDU: Convergence failed at  31  side 1    Res =  0.7356E+01
 MRCHDU: Convergence failed at  32  side 1    Res =  0.2712E+02
 MRCHDU: Convergence failed at  33  side 1    Res =  0.6850E+02
 MRCHDU: Convergence failed at  34  side 1    Res =  0.1591E+02
 MRCHDU: Convergence failed at  35  side 1    Res =  0.9889E+01
 MRCHDU: Convergence failed at  36  side 1    Res =  0.1644E+02
 MRCHDU: Convergence failed at  37  side 1    Res =  0.3808E+02
 MRCHDU: Convergence failed at  38  side 1    Res =  0.1856E+03
 MRCHDU: Convergence failed at  39  side 1    Res =  0.3278E+02
 MRCHDU: Convergence failed at  40  side 1    Res =  0.2036E+02
 MRCHDU: Convergence failed at  41  side 1    Res =  0.1457E+02
 MRCHDU: Convergence failed at  42  side 1    Res =  0.7839E+01
 MRCHDU: Convergence failed at  43  side 1    Res =  0.9036E+01
 MRCHDU: Convergence failed at  44  side 1    Res =  0.1037E+02
 MRCHDU: Convergence failed at  45  side 1    Res =  0.1200E+02
 MRCHDU: Convergence failed at  46  side 1    Res =  0.1402E+02
 MRCHDU: Convergence failed at  47  side 1    Res =  0.1564E+02
 MRCHDU: Convergence failed at  48  side 1    Res =  0.1931E+02
 MRCHDU: Convergence failed at  49  side 1    Res =  0.2525E+02
 MRCHDU: Convergence failed at  50  side 1    Res =  0.2690E+02
 MRCHDU: Convergence failed at  51  side 1    Res =  0.7316E+02
 MRCHDU: Convergence failed at  52  side 1    Res =  0.2098E+03
 MRCHDU: Convergence failed at  53  side 1    Res =  0.1179E+03
 MRCHDU: Convergence failed at  54  side 1    Res =  0.2912E+02
 MRCHDU: Convergence failed at  55  side 1    Res =  0.2656E+02
 MRCHDU: Convergence failed at  56  side 1    Res =  0.1059E+03
 MRCHDU: Convergence failed at  57  side 1    Res =  0.2408E+02
 MRCHDU: Convergence failed at  58  side 1    Res =  0.8700E+01
 MRCHDU: Convergence failed at  59  side 1    Res =  0.8914E+01
 MRCHDU: Convergence failed at  60  side 1    Res =  0.9149E+01
 MRCHDU: Convergence failed at  61  side 1    Res =  0.9353E+01
 MRCHDU: Convergence failed at  62  side 1    Res =  0.9635E+01
 MRCHDU: Convergence failed at  63  side 1    Res =  0.9886E+01
 MRCHDU: Convergence failed at  64  side 1    Res =  0.1012E+02
 MRCHDU: Convergence failed at  65  side 1    Res =  0.1040E+02
 MRCHDU: Convergence failed at  66  side 1    Res =  0.1069E+02
 MRCHDU: Convergence failed at  67  side 1    Res =  0.1101E+02
 MRCHDU: Convergence failed at  68  side 1    Res =  0.1131E+02
 MRCHDU: Convergence failed at  69  side 1    Res =  0.1159E+02
 MRCHDU: Convergence failed at  70  side 1    Res =  0.1195E+02
 MRCHDU: Convergence failed at  71  side 1    Res =  0.1235E+02
 MRCHDU: Convergence failed at  72  side 1    Res =  0.1273E+02
 MRCHDU: Convergence failed at  73  side 1    Res =  0.1316E+02
 MRCHDU: Convergence failed at  74  side 1    Res =  0.1365E+02
 MRCHDU: Convergence failed at  75  side 1    Res =  0.1412E+02
 MRCHDU: Convergence failed at  76  side 1    Res =  0.1466E+02
 MRCHDU: Convergence failed at  77  side 1    Res =  0.1515E+02
 MRCHDU: Convergence failed at  78  side 1    Res =  0.1570E+02
 MRCHDU: Convergence failed at  79  side 1    Res =  0.1632E+02
 MRCHDU: Convergence failed at  80  side 1    Res =  0.1704E+02
 MRCHDU: Convergence failed at  81  side 1    Res =  0.1780E+02
 MRCHDU: Convergence failed at  82  side 1    Res =  0.1868E+02
 MRCHDU: Convergence failed at  83  side 1    Res =  0.1962E+02
 MRCHDU: Convergence failed at  84  side 1    Res =  0.1702E+02
 MRCHDU: Convergence failed at  85  side 1    Res =  0.1772E+02
 MRCHDU: Convergence failed at  86  side 1    Res =  0.1860E+02
 MRCHDU: Convergence failed at  87  side 1    Res =  0.1924E+02
 MRCHDU: Convergence failed at  88  side 1    Res =  0.2019E+02
 MRCHDU: Convergence failed at  89  side 1    Res =  0.2215E+02
 MRCHDU: Convergence failed at  90  side 1    Res =  0.2524E+02
 MRCHDU: Convergence failed at  91  side 1    Res =  0.3721E+02
 MRCHDU: Convergence failed at  84  side 2    Res =  0.1870E+01
 MRCHDU: Convergence failed at  85  side 2    Res =  0.3193E+01
 MRCHDU: Convergence failed at  86  side 2    Res =  0.4630E+01
 Side 1  free  transition at x/c =  0.0469   29
 Side 2  free  transition at x/c =  0.8025   56

   4   rms: 0.1412E+01   max: 0.4377E+01   D at   91  1   RLX: 0.343
       a =  7.000      CL =  2.2556
      Cm = -0.4899     CD =  0.01277   =>   CDf =  0.00208    CDp =  0.01069

 MRCHDU: Convergence failed at  42  side 1    Res =  0.8580E-01
 MRCHDU: Convergence failed at  71  side 1    Res =  0.5391E-01
 MRCHDU: Convergence failed at  72  side 1    Res =  0.8723E-04
 Side 1  free  transition at x/c =  0.0475   28
 Side 2  free  transition at x/c =  0.8010   57

   5   rms: 0.5416E+00   max: -.5626E+00   T at   57  2   RLX: 0.339
       a =  7.000      CL =  1.4496
      Cm = -0.2484     CD =  0.04214   =>   CDf =  0.00549    CDp =  0.03664

 MRCHDU: Convergence failed at  42  side 1    Res =  0.1169E+00
 MRCHDU: Convergence failed at  43  side 1    Res =  0.2375E+00
 Side 1  free  transition at x/c =  0.0490   28
 Side 2  free  transition at x/c =  0.8057   58

   6   rms: 0.6472E+00   max: -.2961E+01   D at   38  1   RLX: 0.169
       a =  7.000      CL =  1.2324
      Cm = -0.1972     CD =  0.04332   =>   CDf =  0.00461    CDp =  0.03871

 MRCHDU: Convergence failed at  29  side 1    Res =  0.2205E+01
 MRCHDU: Convergence failed at  30  side 1    Res =  0.1744E+02
 MRCHDU: Convergence failed at  56  side 1    Res =  0.4420E-01
 MRCHDU: Convergence failed at  71  side 1    Res =  0.6574E-01
 Side 1  free  transition at x/c =  0.0528   29
 Side 2  free  transition at x/c =  0.8060   58

   7   rms: 0.4714E+00   max: -.2084E+01   D at   71  1   RLX: 0.240
       a =  7.000      CL =  1.1191
      Cm = -0.1347     CD =  0.03373   =>   CDf =  0.00578    CDp =  0.02794

 MRCHDU: Convergence failed at  71  side 1    Res =  0.9916E-01
 Side 1  free  transition at x/c =  0.0503   29
 Side 2  free  transition at x/c =  0.8059   58

   8   rms: 0.3578E+00   max: -.1422E+01   D at   71  1   RLX: 0.352
       a =  7.000      CL =  1.0012
      Cm = -0.0993     CD =  0.02971   =>   CDf =  0.00652    CDp =  0.02320

 MRCHDU: Convergence failed at  71  side 1    Res =  0.7555E-02
 Side 1  free  transition at x/c =  0.0497   29
 Side 2  free  transition at x/c =  0.8054   58

   9   rms: 0.4143E+00   max: -.1955E+01   D at   64  1   RLX: 0.256
       a =  7.000      CL =  0.9022
      Cm = -0.0742     CD =  0.02819   =>   CDf =  0.00658    CDp =  0.02161

 Side 1  free  transition at x/c =  0.0521   29
 Side 2  free  transition at x/c =  0.8051   58

  10   rms: 0.4621E+00   max: -.2368E+01   D at   63  1   RLX: 0.211
       a =  7.000      CL =  0.8318
      Cm = -0.0584     CD =  0.02967   =>   CDf =  0.00663    CDp =  0.02304

 MRCHDU: Convergence failed at  58  side 1    Res =  0.5099E+00
 MRCHDU: Convergence failed at  59  side 1    Res =  0.8287E+00
 MRCHDU: Convergence failed at  71  side 1    Res =  0.7347E-02
 Side 1  free  transition at x/c =  0.0555   29
 Side 2  free  transition at x/c =  0.8048   58

  11   rms: 0.2616E+00   max: -.1276E+01   D at   68  1   RLX: 0.392
       a =  7.000      CL =  0.8242
      Cm = -0.0502     CD =  0.02750   =>   CDf =  0.00750    CDp =  0.02000

 MRCHDU: Convergence failed at  71  side 1    Res =  0.2451E-01
 Side 1  free  transition at x/c =  0.0533   29
 Side 2  free  transition at x/c =  0.8044   58

  12   rms: 0.5826E+00   max: -.2684E+01   D at   76  1   RLX: 0.186
       a =  7.000      CL =  0.8722
      Cm = -0.0498     CD =  0.02479   =>   CDf =  0.00720    CDp =  0.01759

 Side 1  free  transition at x/c =  0.0486   28
 Side 2  free  transition at x/c =  0.8041   57

  13   rms: 0.4849E+00   max: -.2225E+01   D at   81  1   RLX: 0.225
       a =  7.000      CL =  0.9314
      Cm = -0.0555     CD =  0.02420   =>   CDf =  0.00759    CDp =  0.01660

 Side 1  free  transition at x/c =  0.0438   28
 Side 2  free  transition at x/c =  0.8036   57

  14   rms: 0.3317E+00   max: -.1330E+01   D at   81  1   RLX: 0.376
       a =  7.000      CL =  0.9901
      Cm = -0.0665     CD =  0.02358   =>   CDf =  0.00741    CDp =  0.01617

 Side 1  free  transition at x/c =  0.0411   28
 Side 2  free  transition at x/c =  0.8020   56

  15   rms: 0.1679E+00   max: -.7941E+00   D at   84  1   RLX: 0.630
       a =  7.000      CL =  1.0116
      Cm = -0.0738     CD =  0.02307   =>   CDf =  0.00771    CDp =  0.01535

 Side 1  free  transition at x/c =  0.0391   28
 Side 2  free  transition at x/c =  0.7989   56

  16   rms: 0.7571E-01   max: -.4295E+00   D at   86  1
       a =  7.000      CL =  0.9481
      Cm = -0.0645     CD =  0.02271   =>   CDf =  0.00765    CDp =  0.01507

 Side 1  free  transition at x/c =  0.0405   28
 Side 2  free  transition at x/c =  0.7981   56

  17   rms: 0.1455E-01   max: -.1500E+00   D at   86  1
       a =  7.000      CL =  0.9391
      Cm = -0.0631     CD =  0.02282   =>   CDf =  0.00767    CDp =  0.01515

 Side 1  free  transition at x/c =  0.0408   28
 Side 2  free  transition at x/c =  0.7982   56

  18   rms: 0.1131E-02   max: -.1574E-01   D at   86  1
       a =  7.000      CL =  0.9385
      Cm = -0.0630     CD =  0.02283   =>   CDf =  0.00769    CDp =  0.01514

 Side 1  free  transition at x/c =  0.0408   28
 Side 2  free  transition at x/c =  0.7982   56

  19   rms: 0.1975E-04   max: 0.1769E-03   D at   59  2
       a =  7.000      CL =  0.9385
      Cm = -0.0630     CD =  0.02283   =>   CDf =  0.00769    CDp =  0.01514

 Point added to stored polar  1
 Point written to save file  000059M0.04.log                                 
 Dump file unspecified or not available
 Calculating wake trajectory ...
 Calculating source influence matrix ...

 Solving BL system ...

 Side 1  free  transition at x/c =  0.0408   28
 Side 2  free  transition at x/c =  0.7981   56

   1   rms: 0.1735E+00   max: 0.1274E+01   T at   28  1   RLX: 0.585
       a =  8.000      CL =  1.0030
      Cm = -0.0627     CD =  0.02399   =>   CDf =  0.00769    CDp =  0.01630

 Side 1  free  transition at x/c =  0.0360   28
 Side 2  free  transition at x/c =  0.8035   56

   2   rms: 0.8204E-01   max: 0.5253E+00   T at   28  1
       a =  8.000      CL =  1.0543
      Cm = -0.0653     CD =  0.02647   =>   CDf =  0.00724    CDp =  0.01923

 MRCHDU: Convergence failed at  29  side 1    Res =  0.9167E+01
 MRCHDU: Convergence failed at  30  side 1    Res =  0.1194E+02
 MRCHDU: Convergence failed at  31  side 1    Res =  0.6693E+01
 MRCHDU: Convergence failed at  32  side 1    Res =  0.2128E+02
 MRCHDU: Convergence failed at  33  side 1    Res =  0.6589E+02
 MRCHDU: Convergence failed at  34  side 1    Res =  0.3096E+02
 MRCHDU: Convergence failed at  35  side 1    Res =  0.2628E+02
 MRCHDU: Convergence failed at  36  side 1    Res =  0.2573E+02
 MRCHDU: Convergence failed at  37  side 1    Res =  0.4623E+02
 MRCHDU: Convergence failed at  38  side 1    Res =  0.4413E+02
 MRCHDU: Convergence failed at  39  side 1    Res =  0.2261E+02
 MRCHDU: Convergence failed at  40  side 1    Res =  0.2550E+02
 MRCHDU: Convergence failed at  41  side 1    Res =  0.4880E+02
 MRCHDU: Convergence failed at  42  side 1    Res =  0.3500E+02
 MRCHDU: Convergence failed at  43  side 1    Res =  0.3277E+02
 MRCHDU: Convergence failed at  44  side 1    Res =  0.3544E+02
 MRCHDU: Convergence failed at  45  side 1    Res =  0.3081E+02
 MRCHDU: Convergence failed at  46  side 1    Res =  0.3777E+02
 MRCHDU: Convergence failed at  47  side 1    Res =  0.3117E+02
 MRCHDU: Convergence failed at  48  side 1    Res =  0.3674E+02
 MRCHDU: Convergence failed at  49  side 1    Res =  0.2981E+02
 MRCHDU: Convergence failed at  50  side 1    Res =  0.3511E+02
 MRCHDU: Convergence failed at  51  side 1    Res =  0.3843E+02
 MRCHDU: Convergence failed at  52  side 1    Res =  0.4191E+02
 MRCHDU: Convergence failed at  53  side 1    Res =  0.4994E+02
 MRCHDU: Convergence failed at  54  side 1    Res =  0.5400E+02
 MRCHDU: Convergence failed at  55  side 1    Res =  0.4071E+02
 MRCHDU: Convergence failed at  56  side 1    Res =  0.4247E+02
 MRCHDU: Convergence failed at  57  side 1    Res =  0.4377E+02
 MRCHDU: Convergence failed at  58  side 1    Res =  0.4467E+02
 MRCHDU: Convergence failed at  59  side 1    Res =  0.4508E+02
 MRCHDU: Convergence failed at  60  side 1    Res =  0.4500E+02
 MRCHDU: Convergence failed at  61  side 1    Res =  0.4445E+02
 MRCHDU: Convergence failed at  62  side 1    Res =  0.3998E+02
 MRCHDU: Convergence failed at  63  side 1    Res =  0.3930E+02
 MRCHDU: Convergence failed at  64  side 1    Res =  0.3897E+02
 MRCHDU: Convergence failed at  65  side 1    Res =  0.3854E+02
 MRCHDU: Convergence failed at  66  side 1    Res =  0.3807E+02
 MRCHDU: Convergence failed at  67  side 1    Res =  0.3760E+02
 MRCHDU: Convergence failed at  68  side 1    Res =  0.3712E+02
 MRCHDU: Convergence failed at  69  side 1    Res =  0.3661E+02
 MRCHDU: Convergence failed at  70  side 1    Res =  0.3621E+02
 MRCHDU: Convergence failed at  71  side 1    Res =  0.3587E+02
 MRCHDU: Convergence failed at  72  side 1    Res =  0.3565E+02
 MRCHDU: Convergence failed at  73  side 1    Res =  0.3562E+02
 MRCHDU: Convergence failed at  74  side 1    Res =  0.3582E+02
 MRCHDU: Convergence failed at  75  side 1    Res =  0.3636E+02
 MRCHDU: Convergence failed at  76  side 1    Res =  0.3727E+02
 MRCHDU: Convergence failed at  77  side 1    Res =  0.3873E+02
 MRCHDU: Convergence failed at  78  side 1    Res =  0.3181E+02
 MRCHDU: Convergence failed at  79  side 1    Res =  0.3395E+02
 MRCHDU: Convergence failed at  80  side 1    Res =  0.3696E+02
 MRCHDU: Convergence failed at  81  side 1    Res =  0.4132E+02
 MRCHDU: Convergence failed at  82  side 1    Res =  0.3975E+02
 MRCHDU: Convergence failed at  83  side 1    Res =  0.9124E+02
 MRCHDU: Convergence failed at  84  side 1    Res =  0.1152E+03
 MRCHDU: Convergence failed at  85  side 1    Res =  0.1586E+03
 MRCHDU: Convergence failed at  86  side 1    Res =  0.1144E+03
 MRCHDU: Convergence failed at  87  side 1    Res =  0.2112E+03
 MRCHDU: Convergence failed at  88  side 1    Res =  0.1276E+03
 MRCHDU: Convergence failed at  89  side 1    Res =  0.5437E+03
 MRCHDU: Convergence failed at  90  side 1    Res =  0.2346E+03
 MRCHDU: Convergence failed at  91  side 1    Res =  0.1597E+03
 MRCHDU: Convergence failed at  92  side 1    Res =  0.1155E+03
 Side 1  free  transition at x/c =  0.0337   28
 Side 2  free  transition at x/c =  0.8118   56

   3   rms: 0.2209E+01   max: 0.8095E+01   D at   72  2   RLX: 0.185
       a =  8.000      CL =  3.3865
      Cm = -0.8070     CD =  0.00738   =>   CDf =  0.00168    CDp =  0.00571

 MRCHDU: Convergence failed at  72  side 2    Res =  0.1019E+02
 MRCHDU: Convergence failed at  73  side 2    Res =  0.4618E+02
 MRCHDU: Convergence failed at  74  side 2    Res =  0.1637E+02
 MRCHDU: Convergence failed at  75  side 2    Res =  0.9993E+01
 MRCHDU: Convergence failed at  76  side 2    Res =  0.1138E+03
 MRCHDU: Convergence failed at  77  side 2    Res =  0.1438E+02
 MRCHDU: Convergence failed at  78  side 2    Res =  0.1025E+02
 MRCHDU: Convergence failed at  79  side 2    Res =  0.8721E+01
 MRCHDU: Convergence failed at  80  side 2    Res =  0.1065E+02
 MRCHDU: Convergence failed at  81  side 2    Res =  0.1876E+03
 MRCHDU: Convergence failed at  82  side 2    Res =  0.3126E+02
 MRCHDU: Convergence failed at  83  side 2    Res =  0.2311E+02
 MRCHDU: Convergence failed at  84  side 2    Res =  0.1515E+02
 MRCHDU: Convergence failed at  85  side 2    Res =  0.1310E+02
 MRCHDU: Convergence failed at  86  side 2    Res =  0.1147E+02
 MRCHDU: Convergence failed at  87  side 2    Res =  0.1006E+02
 MRCHDU: Convergence failed at  88  side 2    Res =  0.7551E+01
 MRCHDU: Convergence failed at  89  side 2    Res =  0.6569E+01
 Side 1  free  transition at x/c =  0.0314   28
 Side 2  free  transition at x/c =  0.8121   56

   4   rms: 0.5606E+00   max: 0.1213E+01   C at   70  2   RLX: 0.243
       a =  8.000      CL =  2.0160
      Cm = -0.3999     CD =  0.04820   =>   CDf =  0.00245    CDp =  0.04575

 Side 1  free  transition at x/c =  0.0306   28
 Side 2  free  transition at x/c =  0.8170   56

   5   rms: 0.4899E+00   max: -.8496E+00   D at   89  2   RLX: 0.548
       a =  8.000      CL =  1.5111
      Cm = -0.2518     CD =  0.07782   =>   CDf =  0.00254    CDp =  0.07528

 Side 1  free  transition at x/c =  0.0311   27
 Side 2  free  transition at x/c =  0.8207   58

   6   rms: 0.4582E+00   max: -.1678E+01   T at   27  1   RLX: 0.298
       a =  8.000      CL =  1.2047
      Cm = -0.1708     CD =  0.10216   =>   CDf =  0.00235    CDp =  0.09981

 Side 1  free  transition at x/c =  0.0345   27
 Side 2  free  transition at x/c =  0.8190   57

   7   rms: 0.1044E+01   max: -.2681E+01   D at   30  1   RLX: 0.184
       a =  8.000      CL =  1.1698
      Cm = -0.1382     CD =  0.09431   =>   CDf =  0.00245    CDp =  0.09186

 MRCHDU: Convergence failed at  28  side 1    Res =  0.8583E+01
 MRCHDU: Convergence failed at  29  side 1    Res =  0.1021E+02
 MRCHDU: Convergence failed at  30  side 1    Res =  0.1460E+02
 MRCHDU: Convergence failed at  31  side 1    Res =  0.1945E+02
 MRCHDU: Convergence failed at  32  side 1    Res =  0.1641E+02
 MRCHDU: Convergence failed at  33  side 1    Res =  0.6974E+01
 MRCHDU: Convergence failed at  34  side 1    Res =  0.1024E+02
 MRCHDU: Convergence failed at  35  side 1    Res =  0.1848E+02
 MRCHDU: Convergence failed at  36  side 1    Res =  0.4489E+02
 MRCHDU: Convergence failed at  37  side 1    Res =  0.6763E+02
 MRCHDU: Convergence failed at  38  side 1    Res =  0.2238E+02
 MRCHDU: Convergence failed at  39  side 1    Res =  0.1481E+02
 MRCHDU: Convergence failed at  40  side 1    Res =  0.9727E+01
 MRCHDU: Convergence failed at  41  side 1    Res =  0.1276E+02
 MRCHDU: Convergence failed at  42  side 1    Res =  0.1866E+02
 MRCHDU: Convergence failed at  43  side 1    Res =  0.2587E+02
 MRCHDU: Convergence failed at  44  side 1    Res =  0.4414E+02
 MRCHDU: Convergence failed at  45  side 1    Res =  0.2150E+03
 MRCHDU: Convergence failed at  46  side 1    Res =  0.1986E+03
 MRCHDU: Convergence failed at  47  side 1    Res =  0.5845E+02
 MRCHDU: Convergence failed at  48  side 1    Res =  0.3427E+02
 MRCHDU: Convergence failed at  49  side 1    Res =  0.2899E+02
 MRCHDU: Convergence failed at  50  side 1    Res =  0.1976E+02
 MRCHDU: Convergence failed at  51  side 1    Res =  0.1793E+02
 MRCHDU: Convergence failed at  52  side 1    Res =  0.1644E+02
 MRCHDU: Convergence failed at  53  side 1    Res =  0.1521E+02
 MRCHDU: Convergence failed at  54  side 1    Res =  0.8604E+01
 MRCHDU: Convergence failed at  55  side 1    Res =  0.1347E+02
 MRCHDU: Convergence failed at  56  side 1    Res =  0.8861E+01
 MRCHDU: Convergence failed at  57  side 1    Res =  0.1004E+02
 MRCHDU: Convergence failed at  58  side 1    Res =  0.8338E+01
 MRCHDU: Convergence failed at  59  side 1    Res =  0.9411E+01
 MRCHDU: Convergence failed at  60  side 1    Res =  0.1059E+02
 MRCHDU: Convergence failed at  61  side 1    Res =  0.1177E+02
 MRCHDU: Convergence failed at  62  side 1    Res =  0.6728E+02
 MRCHDU: Convergence failed at  63  side 1    Res =  0.7649E+02
 MRCHDU: Convergence failed at  64  side 1    Res =  0.8607E+02
 MRCHDU: Convergence failed at  65  side 1    Res =  0.9654E+02
 MRCHDU: Convergence failed at  66  side 1    Res =  0.1091E+03
 MRCHDU: Convergence failed at  67  side 1    Res =  0.1062E+03
 MRCHDU: Convergence failed at  68  side 1    Res =  0.1032E+03
 MRCHDU: Convergence failed at  69  side 1    Res =  0.9652E+02
 MRCHDU: Convergence failed at  70  side 1    Res =  0.9199E+02
 MRCHDU: Convergence failed at  71  side 1    Res =  0.8394E+02
 MRCHDU: Convergence failed at  72  side 1    Res =  0.8020E+02
 MRCHDU: Convergence failed at  73  side 1    Res =  0.8252E+02
 MRCHDU: Convergence failed at  74  side 1    Res =  0.8982E+02
 MRCHDU: Convergence failed at  75  side 1    Res =  0.1071E+03
 MRCHDU: Convergence failed at  76  side 1    Res =  0.7921E+02
 MRCHDU: Convergence failed at  77  side 1    Res =  0.1599E+03
 MRCHDU: Convergence failed at  78  side 1    Res =  0.8224E+02
 MRCHDU: Convergence failed at  79  side 1    Res =  0.1870E+03
 MRCHDU: Convergence failed at  80  side 1    Res =  0.2381E+04
 MRCHDU: Convergence failed at  81  side 1    Res =  0.1635E+03
 MRCHDU: Convergence failed at  82  side 1    Res =  0.3181E+03
 MRCHDU: Convergence failed at  83  side 1    Res =  0.2808E+03
 MRCHDU: Convergence failed at  84  side 1    Res =  0.3097E+02
 MRCHDU: Convergence failed at  85  side 1    Res =  0.7670E+02
 MRCHDU: Convergence failed at  86  side 1    Res =  0.8653E+02
 MRCHDU: Convergence failed at  87  side 1    Res =  0.1502E+04
 MRCHDU: Convergence failed at  88  side 1    Res =  0.9312E+02
 MRCHDU: Convergence failed at  89  side 1    Res =  0.6847E+02
 MRCHDU: Convergence failed at  90  side 1    Res =  0.6009E+02
 MRCHDU: Convergence failed at  91  side 1    Res =  0.4967E+02
 MRCHDU: Convergence failed at  85  side 2    Res =  0.3302E+01
 MRCHDU: Convergence failed at  86  side 2    Res =  0.1652E+02
 MRCHDU: Convergence failed at  87  side 2    Res =  0.4679E+02
 MRCHDU: Convergence failed at  88  side 2    Res =  0.6429E+01
 MRCHDU: Convergence failed at  89  side 2    Res =  0.6745E+01
 MRCHDU: Convergence failed at  90  side 2    Res =  0.3555E+01
 Side 1  free  transition at x/c =  0.0393   28
 Side 2  free  transition at x/c =  0.8223   58

   8   rms: 0.1789E+01   max: 0.5539E+01   D at   91  1   RLX: 0.271
       a =  8.000      CL =  2.7664
      Cm = -0.6251     CD =  0.01505   =>   CDf =  0.00175    CDp =  0.01330

 MRCHDU: Convergence failed at  32  side 1    Res =  0.7390E-01
 MRCHDU: Convergence failed at  48  side 1    Res =  0.2758E+00
 MRCHDU: Convergence failed at  49  side 1    Res =  0.2520E+00
 MRCHDU: Convergence failed at  50  side 1    Res =  0.2268E+00
 MRCHDU: Convergence failed at  51  side 1    Res =  0.1995E+00
 MRCHDU: Convergence failed at  52  side 1    Res =  0.1666E+00
 MRCHDU: Convergence failed at  53  side 1    Res =  0.1210E+00
 MRCHDU: Convergence failed at  54  side 1    Res =  0.2216E-01
 MRCHDU: Convergence failed at  55  side 1    Res =  0.5999E-03
 MRCHDU: Convergence failed at  83  side 2    Res =  0.1886E+01
 Side 1  free  transition at x/c =  0.0388   28
 Side 2  free  transition at x/c =  0.8195   57

   9   rms: 0.6363E+00   max: -.9756E+00   D at   64  2   RLX: 0.269
       a =  8.000      CL =  1.7851
      Cm = -0.3299     CD =  0.05890   =>   CDf =  0.00403    CDp =  0.05488

 MRCHDU: Convergence failed at  54  side 1    Res =  0.2560E+00
 MRCHDU: Convergence failed at  55  side 1    Res =  0.6075E+00
 MRCHDU: Convergence failed at  56  side 1    Res =  0.4363E-01
 MRCHDU: Convergence failed at  57  side 1    Res =  0.1121E-02
 Side 1  free  transition at x/c =  0.0388   28
 Side 2  free  transition at x/c =  0.8239   58

  10   rms: 0.5187E+00   max: -.1512E+01   D at   56  1   RLX: 0.331
       a =  8.000      CL =  1.3286
      Cm = -0.1809     CD =  0.05949   =>   CDf =  0.00377    CDp =  0.05572

 MRCHDU: Convergence failed at  56  side 1    Res =  0.2453E+00
 MRCHDU: Convergence failed at  57  side 1    Res =  0.3771E+00
 Side 1  free  transition at x/c =  0.0407   28
 Side 2  free  transition at x/c =  0.8236   58

  11   rms: 0.9449E+00   max: -.4558E+01   D at   58  1   RLX: 0.110
       a =  8.000      CL =  1.1356
      Cm = -0.1152     CD =  0.06303   =>   CDf =  0.00378    CDp =  0.05925

 MRCHDU: Convergence failed at  58  side 1    Res =  0.2019E+00
 MRCHDU: Convergence failed at  59  side 1    Res =  0.3214E+00
 MRCHDU: Convergence failed at  60  side 1    Res =  0.2872E+00
 Side 1  free  transition at x/c =  0.0439   29
 Side 2  free  transition at x/c =  0.8234   58

  12   rms: 0.1546E+01   max: -.8780E+01   D at   37  1   RLX: 0.057
       a =  8.000      CL =  1.0112
      Cm = -0.0655     CD =  0.06041   =>   CDf =  0.00407    CDp =  0.05634

 MRCHDU: Convergence failed at  34  side 1    Res =  0.4805E+00
 Side 1  free  transition at x/c =  0.0443   29
 Side 2  free  transition at x/c =  0.8233   58

  13   rms: 0.4521E+00   max: -.1709E+01   D at   44  1   RLX: 0.293
       a =  8.000      CL =  0.9887
      Cm = -0.0516     CD =  0.05215   =>   CDf =  0.00500    CDp =  0.04715

 Side 1  free  transition at x/c =  0.0434   29
 Side 2  free  transition at x/c =  0.8217   58

  14   rms: 0.6435E+00   max: -.3094E+01   D at   61  1   RLX: 0.162
       a =  8.000      CL =  0.9568
      Cm = -0.0478     CD =  0.05267   =>   CDf =  0.00472    CDp =  0.04795

 MRCHDU: Convergence failed at  61  side 1    Res =  0.4119E-01
 Side 1  free  transition at x/c =  0.0438   29
 Side 2  free  transition at x/c =  0.8208   58

  15   rms: 0.3921E+00   max: -.1712E+01   D at   54  1   RLX: 0.292
       a =  8.000      CL =  0.9196
      Cm = -0.0457     CD =  0.04806   =>   CDf =  0.00511    CDp =  0.04296

 Side 1  free  transition at x/c =  0.0436   29
 Side 2  free  transition at x/c =  0.8194   57

  16   rms: 0.2913E+00   max: -.1204E+01   D at   56  1   RLX: 0.415
       a =  8.000      CL =  0.8851
      Cm = -0.0373     CD =  0.04173   =>   CDf =  0.00539    CDp =  0.03634

 Side 1  free  transition at x/c =  0.0423   29
 Side 2  free  transition at x/c =  0.8173   57

  17   rms: 0.3017E+00   max: -.1101E+01   D at   73  1   RLX: 0.454
       a =  8.000      CL =  0.8896
      Cm = -0.0260     CD =  0.03521   =>   CDf =  0.00566    CDp =  0.02955

 MRCHDU: Convergence failed at  29  side 1    Res =  0.4544E+01
 MRCHDU: Convergence failed at  30  side 1    Res =  0.8442E+01
 MRCHDU: Convergence failed at  31  side 1    Res =  0.7073E+01
 MRCHDU: Convergence failed at  32  side 1    Res =  0.4224E+01
 MRCHDU: Convergence failed at  33  side 1    Res =  0.4968E+01
 MRCHDU: Convergence failed at  34  side 1    Res =  0.7930E+01
 MRCHDU: Convergence failed at  35  side 1    Res =  0.1285E+02
 MRCHDU: Convergence failed at  36  side 1    Res =  0.3286E+02
 MRCHDU: Convergence failed at  37  side 1    Res =  0.2619E+02
 MRCHDU: Convergence failed at  38  side 1    Res =  0.3395E+02
 MRCHDU: Convergence failed at  39  side 1    Res =  0.8432E+02
 MRCHDU: Convergence failed at  40  side 1    Res =  0.2469E+02
 MRCHDU: Convergence failed at  41  side 1    Res =  0.2482E+02
 MRCHDU: Convergence failed at  42  side 1    Res =  0.2521E+02
 MRCHDU: Convergence failed at  43  side 1    Res =  0.4461E+02
 MRCHDU: Convergence failed at  44  side 1    Res =  0.5904E+02
 MRCHDU: Convergence failed at  45  side 1    Res =  0.2541E+02
 MRCHDU: Convergence failed at  46  side 1    Res =  0.8917E+02
 MRCHDU: Convergence failed at  47  side 1    Res =  0.3459E+02
 MRCHDU: Convergence failed at  48  side 1    Res =  0.2332E+02
 MRCHDU: Convergence failed at  49  side 1    Res =  0.2797E+02
 MRCHDU: Convergence failed at  50  side 1    Res =  0.8304E+02
 MRCHDU: Convergence failed at  51  side 1    Res =  0.8893E+02
 MRCHDU: Convergence failed at  52  side 1    Res =  0.7789E+02
 MRCHDU: Convergence failed at  53  side 1    Res =  0.3999E+02
 MRCHDU: Convergence failed at  54  side 1    Res =  0.3534E+02
 MRCHDU: Convergence failed at  55  side 1    Res =  0.3340E+02
 MRCHDU: Convergence failed at  56  side 1    Res =  0.3275E+02
 MRCHDU: Convergence failed at  57  side 1    Res =  0.2883E+02
 MRCHDU: Convergence failed at  58  side 1    Res =  0.3218E+02
 MRCHDU: Convergence failed at  59  side 1    Res =  0.3593E+02
 MRCHDU: Convergence failed at  60  side 1    Res =  0.7411E+02
 MRCHDU: Convergence failed at  61  side 1    Res =  0.4629E+02
 MRCHDU: Convergence failed at  62  side 1    Res =  0.8425E+02
 MRCHDU: Convergence failed at  63  side 1    Res =  0.4630E+02
 MRCHDU: Convergence failed at  64  side 1    Res =  0.9042E+03
 MRCHDU: Convergence failed at  65  side 1    Res =  0.3640E+04
 MRCHDU: Convergence failed at  66  side 1    Res =  0.1922E+04
 MRCHDU: Convergence failed at  67  side 1    Res =  0.8805E+03
 MRCHDU: Convergence failed at  68  side 1    Res =  0.5836E+03
 MRCHDU: Convergence failed at  69  side 1    Res =  0.3954E+03
 MRCHDU: Convergence failed at  70  side 1    Res =  0.1031E+03
 MRCHDU: Convergence failed at  71  side 1    Res =  0.5112E+02
 MRCHDU: Convergence failed at  72  side 1    Res =  0.5018E+02
 MRCHDU: Convergence failed at  73  side 1    Res =  0.6641E+02
 MRCHDU: Convergence failed at  74  side 1    Res =  0.5786E+02
 MRCHDU: Convergence failed at  75  side 1    Res =  0.5030E+02
 MRCHDU: Convergence failed at  76  side 1    Res =  0.2375E+02
 MRCHDU: Convergence failed at  77  side 1    Res =  0.2232E+02
 MRCHDU: Convergence failed at  78  side 1    Res =  0.3578E+02
 MRCHDU: Convergence failed at  79  side 1    Res =  0.3634E+02
 MRCHDU: Convergence failed at  80  side 1    Res =  0.9646E+02
 MRCHDU: Convergence failed at  81  side 1    Res =  0.4715E+03
 MRCHDU: Convergence failed at  82  side 1    Res =  0.1523E+03
 MRCHDU: Convergence failed at  83  side 1    Res =  0.4658E+02
 MRCHDU: Convergence failed at  84  side 1    Res =  0.2578E+02
 MRCHDU: Convergence failed at  85  side 1    Res =  0.2647E+02
 MRCHDU: Convergence failed at  86  side 1    Res =  0.4220E+02
 MRCHDU: Convergence failed at  87  side 1    Res =  0.5055E+02
 MRCHDU: Convergence failed at  88  side 1    Res =  0.1599E+03
 MRCHDU: Convergence failed at  89  side 1    Res =  0.2618E+03
 MRCHDU: Convergence failed at  90  side 1    Res =  0.8043E+02
 MRCHDU: Convergence failed at  91  side 1    Res =  0.5869E+02
 MRCHDU: Convergence failed at  82  side 2    Res =  0.4213E+01
 Side 1  free  transition at x/c =  0.0396   28
 Side 2  free  transition at x/c =  0.8158   57

  18   rms: 0.1779E+01   max: 0.5568E+01   D at   91  1   RLX: 0.269
       a =  8.000      CL =  2.5035
      Cm = -0.5707     CD =  0.01454   =>   CDf =  0.00220    CDp =  0.01235

 MRCHDU: Convergence failed at  65  side 1    Res =  0.8080E-01
 MRCHDU: Convergence failed at  79  side 2    Res =  0.4004E+01
 MRCHDU: Convergence failed at  80  side 2    Res =  0.6842E+01
 MRCHDU: Convergence failed at  81  side 2    Res =  0.1215E+03
 MRCHDU: Convergence failed at  82  side 2    Res =  0.3895E+01
 MRCHDU: Convergence failed at  83  side 2    Res =  0.2298E+01
 MRCHDU: Convergence failed at  84  side 2    Res =  0.2519E+01
 MRCHDU: Convergence failed at  85  side 2    Res =  0.2153E+01
 Side 1  free  transition at x/c =  0.0383   27
 Side 2  free  transition at x/c =  0.8150   58

  19   rms: 0.5365E+00   max: -.8090E+00   D at   65  2   RLX: 0.300
       a =  8.000      CL =  1.4531
      Cm = -0.2829     CD =  0.06720   =>   CDf =  0.00281    CDp =  0.06439

 Side 1  free  transition at x/c =  0.0390   27
 Side 2  free  transition at x/c =  0.8198   58

  20   rms: 0.5378E+00   max: -.2487E+01   T at   27  1   RLX: 0.201
       a =  8.000      CL =  1.2407
      Cm = -0.2173     CD =  0.08825   =>   CDf =  0.00276    CDp =  0.08549

 Side 1  free  transition at x/c =  0.0451   28
 Side 2  free  transition at x/c =  0.8218   59

  21   rms: 0.4958E+00   max: -.2323E+01   T at   28  1   RLX: 0.215
       a =  8.000      CL =  1.0336
      Cm = -0.1568     CD =  0.08420   =>   CDf =  0.00283    CDp =  0.08137

 Side 1  free  transition at x/c =  0.0503   29
 Side 2  free  transition at x/c =  0.8206   59

  22   rms: 0.4361E+00   max: -.2046E+01   T at   29  1   RLX: 0.244
       a =  8.000      CL =  0.8933
      Cm = -0.1144     CD =  0.08208   =>   CDf =  0.00289    CDp =  0.07919

 Side 1  free  transition at x/c =  0.0531   29
 Side 2  free  transition at x/c =  0.8195   58

  23   rms: 0.1427E+02   max: -.1323E+03   T at   29  1   RLX: 0.004
       a =  8.000      CL =  0.8667
      Cm = -0.1100     CD =  0.09340   =>   CDf =  0.00291    CDp =  0.09049

 Side 1  free  transition at x/c =  0.0590   30
 Side 2  free  transition at x/c =  0.8193   58

  24   rms: 0.4625E+00   max: -.2191E+01   D at   41  1   RLX: 0.228
       a =  8.000      CL =  0.7846
      Cm = -0.0805     CD =  0.07457   =>   CDf =  0.00339    CDp =  0.07117

 Side 1  free  transition at x/c =  0.0595   30
 Side 2  free  transition at x/c =  0.8184   58

  25   rms: 0.4184E+00   max: -.1796E+01   D at   34  1   RLX: 0.278
       a =  8.000      CL =  0.7566
      Cm = -0.0602     CD =  0.06768   =>   CDf =  0.00364    CDp =  0.06404
 VISCAL:  Convergence failed
 Calculating wake trajectory ...
 Calculating source influence matrix ...

 Solving BL system ...

 Side 1  free  transition at x/c =  0.0586   30
 Side 2  free  transition at x/c =  0.8175   58

   1   rms: 0.4984E+00   max: -.2492E+01   D at   31  1   RLX: 0.201
       a =  9.000      CL =  0.7547
      Cm = -0.0473     CD =  0.06539   =>   CDf =  0.00399    CDp =  0.06140

 MRCHDU: Convergence failed at  30  side 1    Res =  0.4120E+01
 MRCHDU: Convergence failed at  31  side 1    Res =  0.7586E+01
 MRCHDU: Convergence failed at  32  side 1    Res =  0.1346E+02
 MRCHDU: Convergence failed at  33  side 1    Res =  0.9599E+01
 MRCHDU: Convergence failed at  34  side 1    Res =  0.1198E+02
 MRCHDU: Convergence failed at  35  side 1    Res =  0.1837E+02
 MRCHDU: Convergence failed at  36  side 1    Res =  0.2415E+02
 MRCHDU: Convergence failed at  37  side 1    Res =  0.3311E+02
 MRCHDU: Convergence failed at  38  side 1    Res =  0.4774E+02
 MRCHDU: Convergence failed at  39  side 1    Res =  0.1094E+03
 MRCHDU: Convergence failed at  40  side 1    Res =  0.7816E+02
 MRCHDU: Convergence failed at  41  side 1    Res =  0.1956E+02
 MRCHDU: Convergence failed at  42  side 1    Res =  0.1981E+02
 MRCHDU: Convergence failed at  43  side 1    Res =  0.5365E+02
 MRCHDU: Convergence failed at  44  side 1    Res =  0.2925E+02
 MRCHDU: Convergence failed at  45  side 1    Res =  0.3082E+02
 MRCHDU: Convergence failed at  46  side 1    Res =  0.1093E+02
 MRCHDU: Convergence failed at  47  side 1    Res =  0.1179E+02
 MRCHDU: Convergence failed at  48  side 1    Res =  0.2093E+02
 MRCHDU: Convergence failed at  49  side 1    Res =  0.1704E+02
 MRCHDU: Convergence failed at  50  side 1    Res =  0.1605E+02
 MRCHDU: Convergence failed at  51  side 1    Res =  0.3442E+02
 MRCHDU: Convergence failed at  52  side 1    Res =  0.4139E+02
 MRCHDU: Convergence failed at  53  side 1    Res =  0.5910E+02
 MRCHDU: Convergence failed at  54  side 1    Res =  0.4436E+02
 MRCHDU: Convergence failed at  55  side 1    Res =  0.5366E+02
 MRCHDU: Convergence failed at  56  side 1    Res =  0.1291E+03
 MRCHDU: Convergence failed at  57  side 1    Res =  0.6544E+02
 MRCHDU: Convergence failed at  58  side 1    Res =  0.4771E+02
 MRCHDU: Convergence failed at  59  side 1    Res =  0.2331E+02
 MRCHDU: Convergence failed at  60  side 1    Res =  0.2179E+02
 MRCHDU: Convergence failed at  61  side 1    Res =  0.1869E+02
 MRCHDU: Convergence failed at  62  side 1    Res =  0.2045E+02
 MRCHDU: Convergence failed at  63  side 1    Res =  0.4437E+02
 MRCHDU: Convergence failed at  64  side 1    Res =  0.1865E+02
 MRCHDU: Convergence failed at  65  side 1    Res =  0.2846E+02
 MRCHDU: Convergence failed at  66  side 1    Res =  0.3990E+02
 MRCHDU: Convergence failed at  67  side 1    Res =  0.7998E+02
 MRCHDU: Convergence failed at  68  side 1    Res =  0.4236E+02
 MRCHDU: Convergence failed at  69  side 1    Res =  0.2639E+02
 MRCHDU: Convergence failed at  70  side 1    Res =  0.2189E+02
 MRCHDU: Convergence failed at  71  side 1    Res =  0.1812E+02
 MRCHDU: Convergence failed at  72  side 1    Res =  0.1277E+02
 MRCHDU: Convergence failed at  73  side 1    Res =  0.1338E+02
 MRCHDU: Convergence failed at  74  side 1    Res =  0.1709E+02
 MRCHDU: Convergence failed at  75  side 1    Res =  0.2079E+02
 MRCHDU: Convergence failed at  76  side 1    Res =  0.2438E+02
 MRCHDU: Convergence failed at  77  side 1    Res =  0.3290E+02
 MRCHDU: Convergence failed at  78  side 1    Res =  0.5204E+02
 MRCHDU: Convergence failed at  79  side 1    Res =  0.9821E+02
 MRCHDU: Convergence failed at  80  side 1    Res =  0.2543E+03
 MRCHDU: Convergence failed at  81  side 1    Res =  0.6092E+02
 MRCHDU: Convergence failed at  82  side 1    Res =  0.3568E+02
 MRCHDU: Convergence failed at  83  side 1    Res =  0.2186E+02
 MRCHDU: Convergence failed at  84  side 1    Res =  0.1902E+02
 MRCHDU: Convergence failed at  85  side 1    Res =  0.1218E+02
 MRCHDU: Convergence failed at  86  side 1    Res =  0.1417E+02
 MRCHDU: Convergence failed at  87  side 1    Res =  0.1420E+02
 MRCHDU: Convergence failed at  88  side 1    Res =  0.2154E+02
 MRCHDU: Convergence failed at  89  side 1    Res =  0.2424E+02
 MRCHDU: Convergence failed at  90  side 1    Res =  0.2633E+02
 MRCHDU: Convergence failed at  87  side 2    Res =  0.5762E+01
 Side 1  free  transition at x/c =  0.0553   29
 Side 2  free  transition at x/c =  0.8187   58

   2   rms: 0.1917E+01   max: 0.7078E+01   D at   90  1   RLX: 0.212
       a =  9.000      CL =  2.2359
      Cm = -0.4897     CD =  0.02228   =>   CDf =  0.00231    CDp =  0.01997

 MRCHDU: Convergence failed at  29  side 1    Res =  0.3622E+02
 MRCHDU: Convergence failed at  44  side 1    Res =  0.2358E-01
 MRCHDU: Convergence failed at  84  side 2    Res =  0.3213E+01
 Side 1  free  transition at x/c =  0.0438   28
 Side 2  free  transition at x/c =  0.8191   58

   3   rms: 0.5781E+00   max: 0.2173E+01   T at   28  1   RLX: 0.394
       a =  9.000      CL =  1.4460
      Cm = -0.2133     CD =  0.05535   =>   CDf =  0.00402    CDp =  0.05133

 Side 1  free  transition at x/c =  0.0389   28
 Side 2  free  transition at x/c =  0.8248   58

   4   rms: 0.4688E+00   max: -.1191E+01   D at   31  1   RLX: 0.420
       a =  9.000      CL =  1.2272
      Cm = -0.1252     CD =  0.04797   =>   CDf =  0.00370    CDp =  0.04427

 Side 1  free  transition at x/c =  0.0366   29
 Side 2  free  transition at x/c =  0.8249   57

   5   rms: 0.7334E+00   max: 0.7063E+01   D at    2  1   RLX: 0.146
       a =  9.000      CL =  1.1909
      Cm = -0.1021     CD =  0.04664   =>   CDf =  0.00405    CDp =  0.04258

 Side 1  free  transition at x/c =  0.0359   29
 Side 2  free  transition at x/c =  0.8250   57

   6   rms: 0.5768E+00   max: -.2162E+01   D at   41  1   RLX: 0.231
       a =  9.000      CL =  1.1763
      Cm = -0.0821     CD =  0.03803   =>   CDf =  0.00438    CDp =  0.03364

 MRCHDU: Convergence failed at  38  side 1    Res =  0.5261E-01
 MRCHDU: Convergence failed at  45  side 1    Res =  0.1362E+01
 Side 1  free  transition at x/c =  0.0347   28
 Side 2  free  transition at x/c =  0.8248   57

   7   rms: 0.7305E+00   max: -.3020E+01   D at   41  1   RLX: 0.166
       a =  9.000      CL =  1.2199
      Cm = -0.0740     CD =  0.03463   =>   CDf =  0.00457    CDp =  0.03006

 MRCHDU: Convergence failed at  38  side 1    Res =  0.7880E+00
 MRCHDU: Convergence failed at  39  side 1    Res =  0.7219E+00
 MRCHDU: Convergence failed at  40  side 1    Res =  0.3832E+00
 MRCHDU: Convergence failed at  41  side 1    Res =  0.1004E+01
 MRCHDU: Convergence failed at  42  side 1    Res =  0.8691E+00
 MRCHDU: Convergence failed at  43  side 1    Res =  0.1128E+01
 MRCHDU: Convergence failed at  44  side 1    Res =  0.1982E+02
 MRCHDU: Convergence failed at  45  side 1    Res =  0.2929E+01
 Side 1  free  transition at x/c =  0.0322   28
 Side 2  free  transition at x/c =  0.8247   57

   8   rms: 0.5786E+00   max: -.2044E+01   D at   54  1   RLX: 0.245
       a =  9.000      CL =  1.3289
      Cm = -0.0580     CD =  0.03440   =>   CDf =  0.00726    CDp =  0.02714

 MRCHDU: Convergence failed at  49  side 1    Res =  0.1111E+01
 MRCHDU: Convergence failed at  50  side 1    Res =  0.1667E+01
 MRCHDU: Convergence failed at  51  side 1    Res =  0.2427E+01
 MRCHDU: Convergence failed at  52  side 1    Res =  0.3681E+01
 MRCHDU: Convergence failed at  53  side 1    Res =  0.5334E+01
 MRCHDU: Convergence failed at  54  side 1    Res =  0.6072E+01
 MRCHDU: Convergence failed at  55  side 1    Res =  0.5539E+01
 MRCHDU: Convergence failed at  56  side 1    Res =  0.4497E+01
 MRCHDU: Convergence failed at  57  side 1    Res =  0.3501E+01
 MRCHDU: Convergence failed at  58  side 1    Res =  0.2732E+01
 MRCHDU: Convergence failed at  59  side 1    Res =  0.2276E+01
 MRCHDU: Convergence failed at  60  side 1    Res =  0.3052E+01
 MRCHDU: Convergence failed at  61  side 1    Res =  0.1175E+02
 MRCHDU: Convergence failed at  64  side 1    Res =  0.1664E+01
 MRCHDU: Convergence failed at  65  side 1    Res =  0.4517E+01
 MRCHDU: Convergence failed at  66  side 1    Res =  0.7385E+01
 MRCHDU: Convergence failed at  67  side 1    Res =  0.1418E+02
 MRCHDU: Convergence failed at  68  side 1    Res =  0.2223E+02
 MRCHDU: Convergence failed at  69  side 1    Res =  0.2565E+02
 MRCHDU: Convergence failed at  70  side 1    Res =  0.1928E+02
 MRCHDU: Convergence failed at  71  side 1    Res =  0.1312E+02
 MRCHDU: Convergence failed at  72  side 1    Res =  0.9024E+01
 MRCHDU: Convergence failed at  73  side 1    Res =  0.6423E+01
 MRCHDU: Convergence failed at  74  side 1    Res =  0.4806E+01
 MRCHDU: Convergence failed at  75  side 1    Res =  0.3727E+01
 MRCHDU: Convergence failed at  76  side 1    Res =  0.2980E+01
 MRCHDU: Convergence failed at  77  side 1    Res =  0.2456E+01
 MRCHDU: Convergence failed at  78  side 1    Res =  0.2085E+01
 MRCHDU: Convergence failed at  79  side 1    Res =  0.1681E+01
 MRCHDU: Convergence failed at  80  side 1    Res =  0.1878E+01
 MRCHDU: Convergence failed at  81  side 1    Res =  0.2135E+01
 MRCHDU: Convergence failed at  82  side 1    Res =  0.2533E+01
 MRCHDU: Convergence failed at  83  side 1    Res =  0.3491E+01
 MRCHDU: Convergence failed at  84  side 1    Res =  0.7134E+01
 MRCHDU: Convergence failed at  85  side 1    Res =  0.1201E+03
 MRCHDU: Convergence failed at  86  side 1    Res =  0.5356E+01
 MRCHDU: Convergence failed at  87  side 1    Res =  0.2593E+01
 MRCHDU: Convergence failed at  88  side 1    Res =  0.1785E+01
 MRCHDU: Convergence failed at  89  side 1    Res =  0.2324E+01
 MRCHDU: Convergence failed at  90  side 1    Res =  0.3322E+01
 MRCHDU: Convergence failed at  91  side 1    Res =  0.5385E+01
 MRCHDU: Convergence failed at  92  side 1    Res =  0.7678E+01
 Side 1  free  transition at x/c =  0.0329   28
 Side 2  free  transition at x/c =  0.8237   57

   9   rms: 0.4890E+00   max: -.9194E+00   D at   80  2   RLX: 0.544
       a =  9.000      CL =  1.5687
      Cm = -0.1988     CD =  0.01728   =>   CDf =  0.00866    CDp =  0.00862

 Side 1  free  transition at x/c =  0.0288   28
 Side 2  free  transition at x/c =  0.8219   56

  10   rms: 0.2562E+00   max: 0.9434E+00   T at   72  2   RLX: 0.885
       a =  9.000      CL =  1.3085
      Cm = -0.0994     CD =  0.02726   =>   CDf =  0.00877    CDp =  0.01849

 MRCHDU: Convergence failed at  71  side 2    Res =  0.2624E+01
 MRCHDU: Convergence failed at  72  side 2    Res =  0.1824E+01
 MRCHDU: Convergence failed at  74  side 2    Res =  0.1689E+01
 MRCHDU: Convergence failed at  75  side 2    Res =  0.1788E+01
 MRCHDU: Convergence failed at  76  side 2    Res =  0.2275E+01
 MRCHDU: Convergence failed at  77  side 2    Res =  0.3787E+01
 MRCHDU: Convergence failed at  78  side 2    Res =  0.1431E+02
 MRCHDU: Convergence failed at  79  side 2    Res =  0.8663E+03
 Side 1  free  transition at x/c =  0.0263   28
 Side 2  free  transition at x/c =  0.8190   55

  11   rms: 0.1345E+00   max: -.6341E+00   D at   79  2   RLX: 0.788
       a =  9.000      CL =  1.1804
      Cm = -0.0694     CD =  0.03380   =>   CDf =  0.00622    CDp =  0.02758

 Side 1  free  transition at x/c =  0.0276   28
 Side 2  free  transition at x/c =  0.8179   55

  12   rms: 0.7891E-01   max: -.3131E+00   D at   79  2
       a =  9.000      CL =  1.1339
      Cm = -0.0589     CD =  0.03157   =>   CDf =  0.00618    CDp =  0.02539

 Side 1  free  transition at x/c =  0.0284   28
 Side 2  free  transition at x/c =  0.8169   55

  13   rms: 0.9559E-02   max: -.6753E-01   D at   79  2
       a =  9.000      CL =  1.1271
      Cm = -0.0575     CD =  0.03186   =>   CDf =  0.00660    CDp =  0.02526

 Side 1  free  transition at x/c =  0.0284   28
 Side 2  free  transition at x/c =  0.8166   55

  14   rms: 0.3372E-03   max: -.3520E-02   D at   73  2
       a =  9.000      CL =  1.1269
      Cm = -0.0574     CD =  0.03187   =>   CDf =  0.00663    CDp =  0.02524

 Side 1  free  transition at x/c =  0.0284   28
 Side 2  free  transition at x/c =  0.8166   55

  15   rms: 0.2721E-05   max: -.1870E-04   D at   73  2
       a =  9.000      CL =  1.1269
      Cm = -0.0574     CD =  0.03187   =>   CDf =  0.00663    CDp =  0.02524

 Point added to stored polar  1
 Point written to save file  000059M0.04.log                                 
 Dump file unspecified or not available
 Calculating wake trajectory ...
 Calculating source influence matrix ...

 Solving BL system ...

 Side 1  free  transition at x/c =  0.0284   28
 Side 2  free  transition at x/c =  0.8166   55

   1   rms: 0.1836E+00   max: 0.6881E+00   T at   28  1
       a = 10.000      CL =  1.2093
      Cm = -0.0527     CD =  0.03877   =>   CDf =  0.00664    CDp =  0.03213

 MRCHDU: Convergence failed at  91  side 1    Res =  0.1547E+01
 MRCHDU: Convergence failed at  92  side 1    Res =  0.1309E+01
 MRCHDU: Convergence failed at  93  side 1    Res =  0.1224E+01
 Side 1  free  transition at x/c =  0.0248   28
 Side 2  free  transition at x/c =  0.8287   56

   2   rms: 0.4092E+01   max: 0.9656E+01   D at   80  1   RLX: 0.056
       a = 10.000      CL =  1.1188
      Cm = -0.0497     CD =  0.05810   =>   CDf =  0.00387    CDp =  0.05424

 Side 1  free  transition at x/c =  0.0264   28
 Side 2  free  transition at x/c =  0.8277   56

   3   rms: 0.2795E+01   max: -.8450E+01   T at   28  1   RLX: 0.059
       a = 10.000      CL =  1.1330
      Cm = -0.0777     CD =  0.07391   =>   CDf =  0.00279    CDp =  0.07112

 Side 1  free  transition at x/c =  0.0287   27
 Side 2  free  transition at x/c =  0.8265   57

   4   rms: 0.2664E+00   max: -.7769E+00   T at   28  1   RLX: 0.644
       a = 10.000      CL =  1.0276
      Cm = -0.0350     CD =  0.05565   =>   CDf =  0.00239    CDp =  0.05326

 Side 1  free  transition at x/c =  0.0280   27
 Side 2  free  transition at x/c =  0.8250   57

   5   rms: 0.4463E+00   max: -.1228E+01   D at   72  1   RLX: 0.407
       a = 10.000      CL =  1.1250
      Cm = -0.0364     CD =  0.05067   =>   CDf =  0.00246    CDp =  0.04821

 Side 1  free  transition at x/c =  0.0261   28
 Side 2  free  transition at x/c =  0.8255   56

[...]
 x:  0.19982  0.21473  0.21694  N:  8.941  9.000  9.007  Nx:   4.297   dN:-0.165E-02
 TRCHEK2: N2 convergence failed.
 x:  0.19982  0.21476  0.21694  N:  8.941  9.000  9.011  Nx:   4.066   dN: 0.270E-02
 TRCHEK2: N2 convergence failed.
 x:  0.19982  0.21499  0.21694  N:  8.941  9.000  9.011  Nx:   4.032   dN: 0.320E-02
 TRCHEK2: N2 convergence failed.
 x:  0.19982  0.21513  0.21694  N:  8.941  9.000  9.003  Nx:   4.095   dN:-0.456E-02
 TRCHEK2: N2 convergence failed.
 x:  0.19982  0.21489  0.21694  N:  8.941  9.000  9.011  Nx:   4.046   dN: 0.299E-02
 TRCHEK2: N2 convergence failed.
 x:  0.19982  0.21441  0.21694  N:  8.941  9.000  9.008  Nx:   4.869   dN:-0.177E-02
 TRCHEK2: N2 convergence failed.
 x:  0.19982  0.21485  0.21694  N:  8.941  9.000  9.011  Nx:   4.051   dN: 0.290E-02
 TRCHEK2: N2 convergence failed.
 x:  0.19982  0.21438  0.21694  N:  8.941  9.000  9.009  Nx:   4.414   dN:-0.136E-02
 TRCHEK2: N2 convergence failed.
 x:  0.19982  0.21520  0.21694  N:  8.941  9.000  9.010  Nx:   4.045   dN: 0.445E-02
 TRCHEK2: N2 convergence failed.
 x:  0.19982  0.21553  0.21694  N:  8.941  9.000  9.009  Nx:   4.004   dN: 0.516E-02
 TRCHEK2: N2 convergence failed.
 x:  0.19982  0.21419  0.21694  N:  8.941  9.000  9.010  Nx:   4.301   dN:-0.103E-02
 TRCHEK2: N2 convergence failed.
 x:  0.19982  0.21547  0.21694  N:  8.941  9.000  9.009  Nx:   4.017   dN: 0.513E-02
 TRCHEK2: N2 convergence failed.
 x:  0.19982  0.21416  0.21694  N:  8.941  9.000  9.010  Nx:   4.330   dN:-0.999E-03
 TRCHEK2: N2 convergence failed.
 x:  0.19982  0.21542  0.21694  N:  8.941  9.000  9.009  Nx:   4.026   dN: 0.511E-02
 TRCHEK2: N2 convergence failed.
 x:  0.19982  0.21414  0.21694  N:  8.941  9.000  9.010  Nx:   4.414   dN:-0.101E-02
 TRCHEK2: N2 convergence failed.
 x:  0.19982  0.21454  0.21694  N:  8.941  9.000  9.006  Nx:   4.117   dN:-0.455E-02
 TRCHEK2: N2 convergence failed.
 x:  0.19982  0.21412  0.21694  N:  8.941  9.000  9.011  Nx:   4.523   dN:-0.104E-02
 TRCHEK2: N2 convergence failed.
 x:  0.19982  0.21492  0.21694  N:  8.941  9.000  9.011  Nx:   4.047   dN: 0.314E-02
 TRCHEK2: N2 convergence failed.
 x:  0.19982  0.21460  0.21694  N:  8.941  9.000  9.012  Nx:   4.092   dN: 0.243E-02
 MRCHDU: Convergence failed at  35  side 2    Res =  0.1670E+03
 MRCHDU: Convergence failed at  36  side 2    Res =  0.2532E+02
 MRCHDU: Convergence failed at  37  side 2    Res =  0.1700E+02
 MRCHDU: Convergence failed at  38  side 2    Res =  0.1434E+02
 MRCHDU: Convergence failed at  39  side 2    Res =  0.2523E+02
 MRCHDU: Convergence failed at  40  side 2    Res =  0.3226E+02
 MRCHDU: Convergence failed at  41  side 2    Res =  0.5235E+02
 MRCHDU: Convergence failed at  42  side 2    Res =  0.6867E+02
 MRCHDU: Convergence failed at  43  side 2    Res =  0.9574E+02
 MRCHDU: Convergence failed at  44  side 2    Res =  0.2044E+03
 MRCHDU: Convergence failed at  45  side 2    Res =  0.9238E+03
 MRCHDU: Convergence failed at  46  side 2    Res =  0.3092E+03
 MRCHDU: Convergence failed at  47  side 2    Res =  0.1209E+03
 MRCHDU: Convergence failed at  48  side 2    Res =  0.8157E+02
 MRCHDU: Convergence failed at  49  side 2    Res =  0.7180E+02
 MRCHDU: Convergence failed at  50  side 2    Res =  0.5873E+02
 MRCHDU: Convergence failed at  51  side 2    Res =  0.5595E+02
 MRCHDU: Convergence failed at  52  side 2    Res =  0.4275E+02
 MRCHDU: Convergence failed at  53  side 2    Res =  0.3937E+02
 MRCHDU: Convergence failed at  54  side 2    Res =  0.6144E+02
 MRCHDU: Convergence failed at  55  side 2    Res =  0.7383E+02
 MRCHDU: Convergence failed at  56  side 2    Res =  0.8760E+02
 MRCHDU: Convergence failed at  57  side 2    Res =  0.2358E+03
 MRCHDU: Convergence failed at  58  side 2    Res =  0.9739E+03
 MRCHDU: Convergence failed at  59  side 2    Res =  0.5826E+03
 MRCHDU: Convergence failed at  60  side 2    Res =  0.6792E+03
 MRCHDU: Convergence failed at  61  side 2    Res =  0.1402E+03
 MRCHDU: Convergence failed at  62  side 2    Res =  0.4278E+03
 MRCHDU: Convergence failed at  63  side 2    Res =  0.1354E+03
 MRCHDU: Convergence failed at  64  side 2    Res =  0.7728E+02
 MRCHDU: Convergence failed at  65  side 2    Res =  0.5006E+03
 MRCHDU: Convergence failed at  66  side 2    Res =  0.1238E+03
 MRCHDU: Convergence failed at  67  side 2    Res =  0.5048E+02
 MRCHDU: Convergence failed at  68  side 2    Res =  0.1498E+03
 MRCHDU: Convergence failed at  69  side 2    Res =  0.1140E+03
 MRCHDU: Convergence failed at  70  side 2    Res =  0.6869E+02
 MRCHDU: Convergence failed at  71  side 2    Res =  0.8549E+02
 MRCHDU: Convergence failed at  72  side 2    Res =  0.7169E+02
 MRCHDU: Convergence failed at  73  side 2    Res =  0.2656E+03
 MRCHDU: Convergence failed at  74  side 2    Res =  0.7856E+02
 MRCHDU: Convergence failed at  75  side 2    Res =  0.5603E+02
 MRCHDU: Convergence failed at  76  side 2    Res =  0.4739E+02
 MRCHDU: Convergence failed at  77  side 2    Res =  0.4497E+02
 MRCHDU: Convergence failed at  78  side 2    Res =  0.5042E+02
 Side 1  free  transition at x/c =  0.5673   59
 Side 2  free  transition at x/c =  0.1874   35

   8   rms: 0.3221E+01   max: 0.5055E+02   T at   35  2   RLX: 0.026
       a =  4.000      CL =  0.2658
      Cm = -0.0285     CD =  0.07518   =>   CDf =  0.00306    CDp =  0.07212

 MRCHDU: Convergence failed at  79  side 2    Res =  0.2581E+01
 Side 1  free  transition at x/c =  0.5687   59
 Side 2  free  transition at x/c =  0.1892   35

   9   rms: 0.8951E+00   max: -.9334E+01   T at   59  1   RLX: 0.054
       a =  4.000      CL =  0.4632
      Cm = -0.0950     CD =  0.17380   =>   CDf =  0.00323    CDp =  0.17057

 Side 1  free  transition at x/c =  0.5791   60
 Side 2  free  transition at x/c =  0.1859   35

  10   rms: 0.8068E+00   max: 0.1128E+02   T at   35  2   RLX: 0.133
       a =  4.000      CL =  0.3994
      Cm = -0.0878     CD =  0.15102   =>   CDf =  0.00343    CDp =  0.14759

 Side 1  free  transition at x/c =  0.5808   59
 Side 2  free  transition at x/c =  0.1577   34

  11   rms: 0.4431E+00   max: 0.6437E+01   T at   34  2   RLX: 0.233
       a =  4.000      CL =  0.3039
      Cm = -0.0638     CD =  0.13013   =>   CDf =  0.00336    CDp =  0.12677

 Side 1  free  transition at x/c =  0.5863   59
 Side 2  free  transition at x/c =  0.1397   33

  12   rms: 0.2903E+01   max: 0.2424E+02   T at   33  2   RLX: 0.062
       a =  4.000      CL =  0.1065
      Cm = -0.0361     CD =  0.15403   =>   CDf =  0.00359    CDp =  0.15044

 Side 1  free  transition at x/c =  0.5716   56
 Side 2  free  transition at x/c =  0.1369   34

  13   rms: 0.5568E+00   max: 0.4867E+01   T at   34  2   RLX: 0.152
       a =  4.000      CL =  0.0701
      Cm = -0.0350     CD =  0.14092   =>   CDf =  0.00329    CDp =  0.13763

 Side 1  free  transition at x/c =  0.5646   56
 Side 2  free  transition at x/c =  0.1242   33

  14   rms: 0.2914E+00   max: 0.2124E+01   T at   33  2   RLX: 0.437
       a =  4.000      CL =  0.0941
      Cm = -0.0402     CD =  0.10888   =>   CDf =  0.00318    CDp =  0.10570

 MRCHDU: Convergence failed at  57  side 1    Res =  0.7628E-05
 Side 1  free  transition at x/c =  0.5755   57
 Side 2  free  transition at x/c =  0.1156   32

  15   rms: 0.2507E+00   max: 0.1088E+01   T at   32  2   RLX: 0.507
       a =  4.000      CL =  0.0970
      Cm = -0.0451     CD =  0.10933   =>   CDf =  0.00324    CDp =  0.10609

 Side 1  free  transition at x/c =  0.5783   57
 Side 2  free  transition at x/c =  0.1088   31

  16   rms: 0.4004E+00   max: -.2718E+01   T at   32  2   RLX: 0.184
       a =  4.000      CL =  0.0852
      Cm = -0.0350     CD =  0.11887   =>   CDf =  0.00323    CDp =  0.11565

 Side 1  free  transition at x/c =  0.5805   57
 Side 2  free  transition at x/c =  0.1083   31

  17   rms: 0.2393E+00   max: -.1034E+01   D at   82  2   RLX: 0.484
       a =  4.000      CL =  0.1185
      Cm = -0.0459     CD =  0.09892   =>   CDf =  0.00321    CDp =  0.09570

 Side 1  free  transition at x/c =  0.5866   57
 Side 2  free  transition at x/c =  0.1076   31

  18   rms: 0.7286E+00   max: -.6342E+01   T at   57  1   RLX: 0.079
       a =  4.000      CL =  0.1689
      Cm = -0.0561     CD =  0.10479   =>   CDf =  0.00323    CDp =  0.10156

 Side 1  free  transition at x/c =  0.5982   58
 Side 2  free  transition at x/c =  0.1071   31

  19   rms: 0.2622E+00   max: -.1316E+01   D at   82  2   RLX: 0.380
       a =  4.000      CL =  0.0815
      Cm = -0.0423     CD =  0.09207   =>   CDf =  0.00341    CDp =  0.08866

 Side 1  free  transition at x/c =  0.5971   57
 Side 2  free  transition at x/c =  0.1062   32

  20   rms: 0.2500E+00   max: -.1465E+01   D at   83  2   RLX: 0.341
       a =  4.000      CL =  0.1707
      Cm = -0.0654     CD =  0.07624   =>   CDf =  0.00323    CDp =  0.07301

 Side 1  free  transition at x/c =  0.5986   58
 Side 2  free  transition at x/c =  0.1059   31

  21   rms: 0.3340E+00   max: -.1455E+01   D at   82  2   RLX: 0.344
       a =  4.000      CL =  0.3194
      Cm = -0.0951     CD =  0.06753   =>   CDf =  0.00332    CDp =  0.06421

 Side 1  free  transition at x/c =  0.6025   59
 Side 2  free  transition at x/c =  0.1069   30

  22   rms: 0.1072E+01   max: 0.1647E+02   D at    2  1   RLX: 0.069
       a =  4.000      CL =  0.3633
      Cm = -0.1027     CD =  0.06800   =>   CDf =  0.00359    CDp =  0.06441

 Side 1  free  transition at x/c =  0.6057   59
 Side 2  free  transition at x/c =  0.1070   30

  23   rms: 0.3149E+00   max: 0.2871E+01   T at   59  1   RLX: 0.399
       a =  4.000      CL =  0.4307
      Cm = -0.1280     CD =  0.07337   =>   CDf =  0.00365    CDp =  0.06973

 Side 1  free  transition at x/c =  0.5871   58
 Side 2  free  transition at x/c =  0.1081   30

  24   rms: 0.1712E+01   max: -.1402E+02   T at   58  1   RLX: 0.036
       a =  4.000      CL =  0.4981
      Cm = -0.1344     CD =  0.07568   =>   CDf =  0.00366    CDp =  0.07202

 Side 1  free  transition at x/c =  0.5963   59
 Side 2  free  transition at x/c =  0.1083   30

  25   rms: 0.4891E+00   max: -.1472E+01   D at   22  2   RLX: 0.340
       a =  4.000      CL =  0.6963
      Cm = -0.1689     CD =  0.06564   =>   CDf =  0.00360    CDp =  0.06204
 VISCAL:  Convergence failed
 Calculating wake trajectory ...
 Calculating source influence matrix ...

 Solving BL system ...

 Side 1  free  transition at x/c =  0.6021   60
 Side 2  free  transition at x/c =  0.1226   31

   1   rms: 0.7980E+01   max: -.4085E+02   D at   31  2   RLX: 0.012
       a =  5.000      CL =  0.7380
      Cm = -0.1741     CD =  0.04796   =>   CDf =  0.00602    CDp =  0.04194

 Side 1  free  transition at x/c =  0.6033   60
 Side 2  free  transition at x/c =  0.1221   31

   2   rms: 0.5922E+00   max: 0.1770E+01   D at   43  2   RLX: 0.335
       a =  5.000      CL =  0.9699
      Cm = -0.2066     CD =  0.04540   =>   CDf =  0.00621    CDp =  0.03919

 Side 1  free  transition at x/c =  0.6163   63
 Side 2  free  transition at x/c =  0.1296   30

   3   rms: 0.4264E+00   max: -.1905E+01   T at   30  2   RLX: 0.262
       a =  5.000      CL =  1.0675
      Cm = -0.2179     CD =  0.04461   =>   CDf =  0.00547    CDp =  0.03914

 Side 1  free  transition at x/c =  0.6206   64
 Side 2  free  transition at x/c =  0.1342   29

   4   rms: 0.1379E+01   max: -.5160E+01   T at   64  1   RLX: 0.097
       a =  5.000      CL =  1.1708
      Cm = -0.2311     CD =  0.03911   =>   CDf =  0.00509    CDp =  0.03402

 Side 1  free  transition at x/c =  0.6322   65
 Side 2  free  transition at x/c =  0.1415   30

   5   rms: 0.6388E+00   max: -.2155E+01   T at   65  1   RLX: 0.232
       a =  5.000      CL =  1.2914
      Cm = -0.2429     CD =  0.03220   =>   CDf =  0.00530    CDp =  0.02690

 Side 1  free  transition at x/c =  0.6387   66
 Side 2  free  transition at x/c =  0.1463   29

   6   rms: 0.6923E+00   max: 0.2528E+01   T at   66  1   RLX: 0.593
       a =  5.000      CL =  1.0455
      Cm = -0.2240     CD =  0.06308   =>   CDf =  0.00551    CDp =  0.05757

 MRCHDU: Convergence failed at  65  side 1    Res =  0.1256E+02
 MRCHDU: Convergence failed at  66  side 1    Res =  0.1411E+02
 MRCHDU: Convergence failed at  67  side 1    Res =  0.2105E+02
 MRCHDU: Convergence failed at  68  side 1    Res =  0.4002E+02
 MRCHDU: Convergence failed at  69  side 1    Res =  0.4424E+02
 MRCHDU: Convergence failed at  70  side 1    Res =  0.2992E+02
 MRCHDU: Convergence failed at  71  side 1    Res =  0.2359E+02
 MRCHDU: Convergence failed at  72  side 1    Res =  0.5090E+02
 MRCHDU: Convergence failed at  73  side 1    Res =  0.2813E+03
 MRCHDU: Convergence failed at  74  side 1    Res =  0.2543E+02
 MRCHDU: Convergence failed at  75  side 1    Res =  0.3260E+02
 MRCHDU: Convergence failed at  76  side 1    Res =  0.1877E+02
 MRCHDU: Convergence failed at  77  side 1    Res =  0.1354E+02
 MRCHDU: Convergence failed at  78  side 1    Res =  0.1446E+02
 MRCHDU: Convergence failed at  79  side 1    Res =  0.1700E+02
 MRCHDU: Convergence failed at  80  side 1    Res =  0.1925E+02
 MRCHDU: Convergence failed at  81  side 1    Res =  0.2167E+02
 MRCHDU: Convergence failed at  82  side 1    Res =  0.2490E+02
 MRCHDU: Convergence failed at  83  side 1    Res =  0.2692E+02
 MRCHDU: Convergence failed at  84  side 1    Res =  0.2904E+02
 MRCHDU: Convergence failed at  85  side 1    Res =  0.2616E+02
 MRCHDU: Convergence failed at  47  side 2    Res =  0.2915E+01
 MRCHDU: Convergence failed at  48  side 2    Res =  0.1960E+01
 MRCHDU: Convergence failed at  49  side 2    Res =  0.1155E+01
 MRCHDU: Convergence failed at  50  side 2    Res =  0.1082E+01
 MRCHDU: Convergence failed at  51  side 2    Res =  0.1227E+01
 MRCHDU: Convergence failed at  52  side 2    Res =  0.1552E+01
 MRCHDU: Convergence failed at  53  side 2    Res =  0.2017E+01
 MRCHDU: Convergence failed at  54  side 2    Res =  0.2822E+01
 MRCHDU: Convergence failed at  55  side 2    Res =  0.4533E+01
 MRCHDU: Convergence failed at  56  side 2    Res =  0.2429E+02
 MRCHDU: Convergence failed at  57  side 2    Res =  0.9717E+01
 MRCHDU: Convergence failed at  58  side 2    Res =  0.4351E+01
 Side 1  free  transition at x/c =  0.6208   64
 Side 2  free  transition at x/c =  0.1426   30

   7   rms: 0.7357E+00   max: 0.4768E+01   T at   64  1   RLX: 0.263
       a =  5.000      CL =  1.1835
      Cm = -0.3250     CD =  0.03790   =>   CDf =  0.00423    CDp =  0.03367

 MRCHDU: Convergence failed at  90  side 2    Res =  0.9009E+00
 MRCHDU: Convergence failed at  91  side 2    Res =  0.2085E+01
 Side 1  free  transition at x/c =  0.6016   63
 Side 2  free  transition at x/c =  0.1411   30

   8   rms: 0.3018E+00   max: 0.1077E+01   T at   63  1   RLX: 0.542
       a =  5.000      CL =  1.1222
      Cm = -0.2648     CD =  0.08095   =>   CDf =  0.00488    CDp =  0.07606

 Side 1  free  transition at x/c =  0.5917   62
 Side 2  free  transition at x/c =  0.1512   30

   9   rms: 0.9733E+00   max: 0.4209E+01   D at   39  2   RLX: 0.310
       a =  5.000      CL =  1.0706
      Cm = -0.2440     CD =  0.08552   =>   CDf =  0.00509    CDp =  0.08043

 Side 1  free  transition at x/c =  0.5914   62
 Side 2  free  transition at x/c =  0.1462   30

  10   rms: 0.4370E+00   max: -.1424E+01   D at   59  2   RLX: 0.351
       a =  5.000      CL =  1.1132
      Cm = -0.2511     CD =  0.08037   =>   CDf =  0.00452    CDp =  0.07585

 Side 1  free  transition at x/c =  0.5875   62
 Side 2  free  transition at x/c =  0.1528   31

  11   rms: 0.9986E+00   max: -.8768E+01   T at   62  1   RLX: 0.057
       a =  5.000      CL =  1.1588
      Cm = -0.2532     CD =  0.07806   =>   CDf =  0.00495    CDp =  0.07310

 Side 1  free  transition at x/c =  0.5967   63
 Side 2  free  transition at x/c =  0.1547   31

  12   rms: 0.2231E+00   max: -.6615E+00   D at   67  1   RLX: 0.756
       a =  5.000      CL =  1.2696
      Cm = -0.2593     CD =  0.05501   =>   CDf =  0.00468    CDp =  0.05033

 Side 1  free  transition at x/c =  0.6035   64
 Side 2  free  transition at x/c =  0.1607   30

  13   rms: 0.1336E+01   max: 0.5706E+01   T at   30  2   RLX: 0.246
       a =  5.000      CL =  1.1024
      Cm = -0.2319     CD =  0.07458   =>   CDf =  0.00528    CDp =  0.06930

 Side 1  free  transition at x/c =  0.5969   63
 Side 2  free  transition at x/c =  0.1511   30

  14   rms: 0.2288E+00   max: 0.1091E+01   T at   30  2   RLX: 0.587
       a =  5.000      CL =  1.1848
      Cm = -0.2376     CD =  0.05832   =>   CDf =  0.00406    CDp =  0.05426

 Side 1  free  transition at x/c =  0.6019   64
 Side 2  free  transition at x/c =  0.1495   29

  15   rms: 0.8668E+00   max: 0.4574E+01   T at   29  2   RLX: 0.221
       a =  5.000      CL =  1.0547
      Cm = -0.2106     CD =  0.06838   =>   CDf =  0.00438    CDp =  0.06400

 Side 1  free  transition at x/c =  0.6025   63
 Side 2  free  transition at x/c =  0.2177   35

  16   rms: 0.1186E+02   max: 0.8146E+02   T at   35  2   RLX: 0.007
       a =  5.000      CL =  0.9990
      Cm = -0.2106     CD =  0.07543   =>   CDf =  0.00382    CDp =  0.07161

 Side 1  free  transition at x/c =  0.5930   62
 Side 2  free  transition at x/c =  0.2122   35

  17   rms: 0.3523E+00   max: 0.1973E+01   T at   35  2   RLX: 0.606
       a =  5.000      CL =  1.0905
      Cm = -0.2309     CD =  0.07812   =>   CDf =  0.00373    CDp =  0.07439

 MRCHDU: Convergence failed at  57  side 2    Res =  0.1669E+01
 MRCHDU: Convergence failed at  58  side 2    Res =  0.2824E+01
 Side 1  free  transition at x/c =  0.5868   62
 Side 2  free  transition at x/c =  0.1844   33

  18   rms: 0.4272E+01   max: 0.4361E+02   T at   33  2   RLX: 0.034
       a =  5.000      CL =  0.9521
      Cm = -0.2141     CD =  0.08379   =>   CDf =  0.00406    CDp =  0.07974

 Side 1  free  transition at x/c =  0.5728   61
 Side 2  free  transition at x/c =  0.1662   32

  19   rms: 0.2134E+00   max: 0.2440E+01   T at   32  2   RLX: 0.615
       a =  5.000      CL =  0.9236
      Cm = -0.2129     CD =  0.08573   =>   CDf =  0.00403    CDp =  0.08170

 Side 1  free  transition at x/c =  0.5638   60
 Side 2  free  transition at x/c =  0.1610   32

  20   rms: 0.3840E+00   max: 0.1870E+01   D at   37  2   RLX: 0.802
       a =  5.000      CL =  0.9198
      Cm = -0.2028     CD =  0.08008   =>   CDf =  0.00392    CDp =  0.07616

 Side 1  free  transition at x/c =  0.5733   61
 Side 2  free  transition at x/c =  0.1455   30

  21   rms: 0.1352E+00   max: 0.9136E+00   T at   61  1   RLX: 0.825
       a =  5.000      CL =  0.8518
      Cm = -0.1929     CD =  0.08172   =>   CDf =  0.00395    CDp =  0.07776

 Side 1  free  transition at x/c =  0.5636   60
 Side 2  free  transition at x/c =  0.1427   31

  22   rms: 0.1250E+00   max: -.8975E+00   T at   31  2   RLX: 0.557
       a =  5.000      CL =  0.9043
      Cm = -0.2018     CD =  0.08334   =>   CDf =  0.00366    CDp =  0.07968

 Side 1  free  transition at x/c =  0.5702   60
 Side 2  free  transition at x/c =  0.1462   31

  23   rms: 0.1040E+01   max: 0.8698E+01   T at   31  2   RLX: 0.144
       a =  5.000      CL =  0.7471
      Cm = -0.1834     CD =  0.09960   =>   CDf =  0.00366    CDp =  0.09594

 Side 1  free  transition at x/c =  0.5528   59
 Side 2  free  transition atGot result {'DD': 0.02328, 'Dmin': 1.0, 'LL': -1.3589}
Completed successfully in 7.81 seconds. [{'DD': 0.02328, 'Dmin': 1.0, 'LL': -1.3589}]
 x/c =  0.1381   30

  24   rms: 0.1615E+01   max: -.1138E+02   T at   59  1   RLX: 0.044
       a =  5.000      CL =  0.7894
      Cm = -0.1860     CD =  0.11164   =>   CDf =  0.00341    CDp =  0.10822

 Side 1  free  transition at x/c =  0.5600   60
 Side 2  free  transition at x/c =  0.1372   30

  25   rms: 0.1688E+00   max: -.7503E+00   T at   60  1   RLX: 0.666
       a =  5.000      CL =  0.8965
      Cm = -0.2001     CD =  0.08444   =>   CDf =  0.00361    CDp =  0.08084
 VISCAL:  Convergence failed

 Sequence halted since previous  4 points did not converge
 Last-converged  alpha =   0.000    CL =  -0.00000

.OPERva   c>  
 XFOIL   c>  
