Job launching after 0.45 seconds in submission.
Running python job.
Changed into dir /home/simonx/Documents/Udacity/Projects/capstone/PESM_NSGA2_CST_XFoil
Importing evaluationFunctionXFoil.py
Running evaluationFunctionXFoil.main()
0
1
2
0.04
resp: 
 ===================================================
  XFOIL Version 6.97
  Copyright (C) 2000   Mark Drela, Harold Youngren

  This software comes with ABSOLUTELY NO WARRANTY,
    subject to the GNU General Public License.

  Caveat computor
 ===================================================

 File  xfoil.def  not found

   QUIT    Exit program

  .OPER    Direct operating point(s)
  .MDES    Complex mapping design routine
  .QDES    Surface speed design routine
  .GDES    Geometry design routine

   SAVE f  Write airfoil to labeled coordinate file
   PSAV f  Write airfoil to plain coordinate file
   ISAV f  Write airfoil to ISES coordinate file
   MSAV f  Write airfoil to MSES coordinate file
   REVE    Reverse written-airfoil node ordering
   DELI i  Change written-airfoil file delimiters

   LOAD f  Read buffer airfoil from coordinate file
   NACA i  Set NACA 4,5-digit airfoil and buffer airfoil
   INTE    Set buffer airfoil by interpolating two airfoils
   NORM    Buffer airfoil normalization toggle
   HALF    Halve the number of points in buffer airfoil
   XYCM rr Change CM reference location, currently  0.25000 0.00000

   BEND    Display structural properties of current airfoil

   PCOP    Set current-airfoil panel nodes directly from buffer airfoil points
   PANE    Set current-airfoil panel nodes ( 160 ) based on curvature
  .PPAR    Show/change paneling

  .PLOP    Plotting options

   WDEF f  Write  current-settings file
   RDEF f  Reread current-settings file
   NAME s  Specify new airfoil name
   NINC    Increment name version number

   Z       Zoom    | (available in all menus)
   U       Unzoom  | 

 XFOIL   c>   ...............................................

  G raphics-enable flag:        T
  S ize of plot object          10.00"
  A spect ratio of plot object   0.5500
  P age dimensions              11.00 x  8.50"
  M argins from page edges       0.00",  0.00"
  F ont size (relative)          0.0150
  W indow/screen size fraction   0.8000
  B lowup input method:        Cursor    
  O rientation of plot:        Landscape 
  C olor PostScript output?     F

      Option, Value   (or <Return>)    c>   ...............................................

  G raphics-enable flag:        F
  S ize of plot object          10.00"
  A spect ratio of plot object   0.5500
  P age dimensions              11.00 x  8.50"
  M argins from page edges       0.00",  0.00"
  F ont size (relative)          0.0150
  W indow/screen size fraction   0.8000
  B lowup input method:        Cursor    
  O rientation of plot:        Landscape 
  C olor PostScript output?     F

      Option, Value   (or <Return>)    c>  
 XFOIL   c>  
 Labeled airfoil file.  Name:  000210                                          

 Number of input coordinate points: 200
 Clockwise ordering
 Max thickness =     0.184539  at x =   0.158
 Max camber    =     0.101422  at x =   0.500

  LE  x,y  =  -0.00000   0.00035  |   Chord =   0.99988
  TE  x,y  =   0.99988   0.00005  |

 Current airfoil nodes set from buffer airfoil nodes ( 200 )

 XFOIL   c>  
 You are working with the buffer airfoil

.GDES   c>  
  i       x        y      angle
   2   0.9990   0.0004    0.071
   3   0.9978   0.0009    0.001
   4   0.9961   0.0017   -0.005
   5   0.9938   0.0026    0.036
   6   0.9911   0.0037    0.034
   7   0.9880   0.0050    0.032
   8   0.9843   0.0066    0.031
   9   0.9801   0.0083    0.056
  10   0.9755   0.0102    0.045
  11   0.9704   0.0123    0.063
  12   0.9649   0.0146    0.061
  13   0.9589   0.0171    0.084
  14   0.9524   0.0197    0.097
  15   0.9455   0.0225    0.087
  16   0.9382   0.0255    0.117
  17   0.9304   0.0287    0.118
  18   0.9222   0.0320    0.140
  19   0.9135   0.0354    0.151
  20   0.9045   0.0390    0.160
  21   0.8951   0.0427    0.184
  22   0.8853   0.0465    0.194
  23   0.8751   0.0504    0.216
  24   0.8645   0.0544    0.227
  25   0.8536   0.0585    0.249
  26   0.8423   0.0627    0.268
  27   0.8307   0.0670    0.289
  28   0.8187   0.0713    0.299
  29   0.8065   0.0756    0.334
  30   0.7939   0.0800    0.342
  31   0.7810   0.0844    0.367
  32   0.7679   0.0887    0.389
  33   0.7545   0.0931    0.412
  34   0.7409   0.0974    0.431
  35   0.7270   0.1017    0.450
  36   0.7129   0.1060    0.477
  37   0.6986   0.1102    0.497
  38   0.6841   0.1143    0.515
  39   0.6694   0.1183    0.539
  40   0.6545   0.1222    0.554
  41   0.6395   0.1260    0.585
  42   0.6243   0.1297    0.599
  43   0.6091   0.1332    0.620
  44   0.5937   0.1366    0.639
  45   0.5782   0.1398    0.661
  46   0.5627   0.1428    0.678
  47   0.5471   0.1457    0.697
  48   0.5314   0.1484    0.716
  49   0.5157   0.1509    0.732
  50   0.5000   0.1531    0.755
  51   0.4843   0.1552    0.766
  52   0.4686   0.1571    0.785
  53   0.4529   0.1587    0.808
  54   0.4373   0.1601    0.817
  55   0.4218   0.1613    0.841
  56   0.4063   0.1622    0.856
  57   0.3909   0.1629    0.873
  58   0.3757   0.1634    0.897
  59   0.3605   0.1636    0.912
  60   0.3455   0.1636    0.929
  61   0.3306   0.1634    0.954
  62   0.3159   0.1629    0.978
  63   0.3014   0.1621    0.993
  64   0.2871   0.1612    1.027
  65   0.2730   0.1599    1.052
  66   0.2591   0.1585    1.078
  67   0.2455   0.1568    1.110
  68   0.2321   0.1549    1.142
  69   0.2190   0.1527    1.179
  70   0.2061   0.1503    1.220
  71   0.1935   0.1477    1.262
  72   0.1813   0.1449    1.306
  73   0.1693   0.1419    1.358
  74   0.1577   0.1386    1.417
  75   0.1464   0.1352    1.467
  76   0.1355   0.1315    1.532
  77   0.1249   0.1276    1.611
  78   0.1147   0.1236    1.678
  79   0.1049   0.1193    1.767
  80   0.0955   0.1149    1.851
  81   0.0865   0.1103    1.947
  82   0.0778   0.1056    2.051
  83   0.0696   0.1006    2.168
  84   0.0618   0.0956    2.288
  85   0.0545   0.0903    2.409
  86   0.0476   0.0850    2.560
  87   0.0411   0.0795    2.703
  88   0.0351   0.0739    2.854
  89   0.0296   0.0681    3.017
  90   0.0245   0.0623    3.184
  91   0.0199   0.0563    3.360
  92   0.0157   0.0503    3.540
  93   0.0120   0.0442    3.695
  94   0.0089   0.0380    3.874
  95   0.0062   0.0318    4.016
  96   0.0039   0.0255    4.149
  97   0.0022   0.0191    4.270
  98   0.0010   0.0128    4.345
  99   0.0002   0.0064    4.399
 100   0.0000   0.0000    4.909
 101   0.0002  -0.0052    5.400
 102   0.0010  -0.0104    5.437
 103   0.0022  -0.0156    5.511
 104   0.0039  -0.0206    5.562
 105   0.0062  -0.0254    5.642
 106   0.0089  -0.0300    5.703
 107   0.0120  -0.0344    5.698
 108   0.0157  -0.0385    5.687
 109   0.0199  -0.0424    5.613
 110   0.0245  -0.0458    5.451
 111   0.0296  -0.0490    5.249
 112   0.0351  -0.0517    4.989
 113   0.0411  -0.0541    4.694
 114   0.0476  -0.0560    4.374
 115   0.0545  -0.0575    4.003
 116   0.0618  -0.0586    3.677
 117   0.0696  -0.0592    3.315
 118   0.0778  -0.0594    2.999
 119   0.0865  -0.0591    2.668
 120   0.0955  -0.0585    2.381
 121   0.1049  -0.0573    2.106
 122   0.1147  -0.0558    1.848
 123   0.1249  -0.0539    1.602
 124   0.1355  -0.0516    1.397
 125   0.1464  -0.0489    1.193
 126   0.1577  -0.0459    1.003
 127   0.1693  -0.0426    0.827
 128   0.1813  -0.0390    0.678
 129   0.1935  -0.0352    0.522
 130   0.2061  -0.0311    0.391
 131   0.2190  -0.0268    0.255
 132   0.2321  -0.0224    0.141
 133   0.2455  -0.0179    0.029
 134   0.2591  -0.0133   -0.077
 135   0.2730  -0.0086   -0.173
 136   0.2871  -0.0039   -0.269
 137   0.3014   0.0008   -0.348
 138   0.3159   0.0055   -0.430
 139   0.3306   0.0101   -0.506
 140   0.3455   0.0147   -0.571
 141   0.3605   0.0191   -0.635
 142   0.3757   0.0233   -0.692
 143   0.3909   0.0275   -0.746
 144   0.4063   0.0314   -0.794
 145   0.4218   0.0351   -0.833
 146   0.4373   0.0386   -0.870
 147   0.4529   0.0418   -0.903
 148   0.4686   0.0449   -0.925
 149   0.4843   0.0476   -0.950
 150   0.5000   0.0501   -0.963
 151   0.5157   0.0523   -0.976
 152   0.5314   0.0543   -0.983
 153   0.5471   0.0560   -0.985
 154   0.5627   0.0573   -0.979
 155   0.5782   0.0585   -0.972
 156   0.5937   0.0593   -0.970
 157   0.6091   0.0599   -0.951
 158   0.6243   0.0602   -0.935
 159   0.6395   0.0603   -0.917
 160   0.6545   0.0602   -0.893
 161   0.6694   0.0598   -0.878
 162   0.6841   0.0592   -0.841
 163   0.6986   0.0583   -0.825
 164   0.7129   0.0573   -0.791
 165   0.7270   0.0561   -0.765
 166   0.7409   0.0548   -0.737
 167   0.7545   0.0533   -0.709
 168   0.7679   0.0516   -0.676
 169   0.7810   0.0498   -0.646
 170   0.7939   0.0479   -0.623
 171   0.8065   0.0459   -0.587
 172   0.8187   0.0439   -0.563
 173   0.8307   0.0417   -0.536
 174   0.8423   0.0396   -0.504
 175   0.8536   0.0373   -0.482
 176   0.8645   0.0351   -0.452
 177   0.8751   0.0328   -0.427
 178   0.8853   0.0305   -0.408
 179   0.8951   0.0283   -0.380
 180   0.9045   0.0260   -0.356
 181   0.9135   0.0238   -0.334
 182   0.9222   0.0217   -0.316
 183   0.9304   0.0196   -0.287
 184   0.9382   0.0175   -0.283
 185   0.9455   0.0156   -0.239
 186   0.9524   0.0137   -0.250
 187   0.9589   0.0119   -0.199
 188   0.9649   0.0103   -0.212
 189   0.9704   0.0087   -0.170
 190   0.9755   0.0072   -0.152
 191   0.9801   0.0059   -0.154
 192   0.9843   0.0047   -0.128
 193   0.9880   0.0036   -0.106
 194   0.9911   0.0027   -0.101
 195   0.9938   0.0019   -0.080
 196   0.9961   0.0012   -0.052
 197   0.9978   0.0007   -0.047
 198   0.9990   0.0003   -0.040
 199   0.9998   0.0001   -0.049

 Maximum panel corner angle =  5.703   at  i,x,y  = 106   0.0089  -0.0300

 Enter corner angle criterion for refinement (deg):   2.851
 Enter type of spline parameter (1=uniform, 2=arclength):   1
 Enter refinement x limits:  -0.10000   1.10000
 Number of points added:           62
 Max thickness =     0.184521  at x =   0.158
 Max camber    =     0.101598  at x =   0.500

 Maximum panel corner angle =  2.560   at  i,x,y  =  86   0.0476   0.0850

.GDES   c>  
 Buffer airfoil is not identical to current airfoil

 XFOIL   c>  
 Blunt trailing edge.  Gap =  0.00027

 Paneling parameters used...
   Number of panel nodes       160
   Panel bunching parameter    1.000
   TE/LE panel density ratio   0.150
   Refined-area/LE panel density ratio    0.200
   Top    side refined area x/c limits  1.000 1.000
   Bottom side refined area x/c limits  1.000 1.000

 XFOIL   c>  
Enter output filename   s>  
 XFOIL   c>  
.OPERi   c>   Current iteration limit:          20

Enter new iteration limit   i>  
Enter new iteration limit   i>  
Enter new iteration limit   i>  
.OPERi   c>  
 M  =    0.0000
 Re =  0.3000E+06

.OPERv   c>  
 Sonic Cp =   -420.65      Sonic Q/Qinf =    22.825


.OPERv   c>  
 Polar  1 newly created for accumulation
 Airfoil archived with polar: 000210                                          

Enter  polar save filename  OR  <return> for no file   s>  
 New polar save file available

Enter  polar dump filename  OR  <return> for no file   s>  
 Polar dump file will NOT be written

 Polar accumulation enabled

.OPERva   c>   Calculating unit vorticity distributions ...
 Calculating wake trajectory ...
 Calculating source influence matrix ...

 Solving BL system ...

 Initializing BL ...
    side            1  ...
 MRCHUE: Inverse mode at  57     Hk =   4.505
 MRCHUE: Inverse mode at  58     Hk =   5.357
 MRCHUE: Inverse mode at  59     Hk =   6.198
 MRCHUE: Inverse mode at  60     Hk =   7.032
 MRCHUE: Inverse mode at  61     Hk =   7.861
 MRCHUE: Inverse mode at  62     Hk =   8.102
 MRCHUE: Inverse mode at  63     Hk =   4.283
 MRCHUE: Inverse mode at  64     Hk =   2.500
 MRCHUE: Inverse mode at  84     Hk =   2.500
    side            2  ...
 MRCHUE: Inverse mode at  31     Hk =   4.179
 MRCHUE: Inverse mode at  32     Hk =   4.844
 MRCHUE: Inverse mode at  33     Hk =   5.524
 MRCHUE: Inverse mode at  34     Hk =   6.232
 MRCHUE: Inverse mode at  35     Hk =   6.975
 MRCHUE: Inverse mode at  36     Hk =   7.766
 MRCHUE: Inverse mode at  37     Hk =   8.615
 MRCHUE: Inverse mode at  38     Hk =   9.531
 MRCHUE: Inverse mode at  39     Hk =   6.702
 MRCHUE: Inverse mode at  40     Hk =   3.421
 MRCHUE: Inverse mode at  41     Hk =   2.500
 MRCHUE: Inverse mode at  42     Hk =   2.500
 MRCHUE: Inverse mode at  43     Hk =   2.500
 MRCHUE: Inverse mode at  44     Hk =   2.500
 MRCHUE: Inverse mode at  45     Hk =   2.500
 MRCHUE: Inverse mode at  46     Hk =   2.500
 MRCHUE: Inverse mode at  47     Hk =   2.500
 MRCHUE: Inverse mode at  48     Hk =   2.500
 MRCHUE: Inverse mode at  49     Hk =   2.500
 MRCHUE: Inverse mode at  50     Hk =   2.500
 MRCHUE: Inverse mode at  51     Hk =   2.500
 MRCHUE: Inverse mode at  52     Hk =   2.500
 MRCHUE: Inverse mode at  53     Hk =   2.500

 Side 1  free  transition at x/c =  0.5260   62
 Side 2  free  transition at x/c =  0.2100   39

   1   rms: 0.4124E+00   max: -.1729E+01   D at   49  2   RLX: 0.289
       a =  2.000      CL =  1.4872
      Cm = -0.2871     CD =  0.01481   =>   CDf =  0.00727    CDp =  0.00753

 Side 1  free  transition at x/c =  0.5372   63
 Side 2  free  transition at x/c =  0.2059   39

   2   rms: 0.2640E+00   max: -.1166E+01   D at   52  2   RLX: 0.429
       a =  2.000      CL =  1.4507
      Cm = -0.2796     CD =  0.01360   =>   CDf =  0.00718    CDp =  0.00642

 Side 1  free  transition at x/c =  0.5465   63
 Side 2  free  transition at x/c =  0.2012   38

   3   rms: 0.1146E+00   max: 0.1103E+01   T at   38  2   RLX: 0.711
       a =  2.000      CL =  1.3995
      Cm = -0.2663     CD =  0.01688   =>   CDf =  0.00718    CDp =  0.00969

 Side 1  free  transition at x/c =  0.5651   64
 Side 2  free  transition at x/c =  0.1881   38

   4   rms: 0.9983E-01   max: -.4468E+00   D at   39  2
       a =  2.000      CL =  1.3865
      Cm = -0.2631     CD =  0.01705   =>   CDf =  0.00673    CDp =  0.01032

 Side 1  free  transition at x/c =  0.5696   64
 Side 2  free  transition at x/c =  0.1875   38

   5   rms: 0.7585E-01   max: 0.4011E+00   T at   38  2
       a =  2.000      CL =  1.3767
      Cm = -0.2603     CD =  0.01813   =>   CDf =  0.00703    CDp =  0.01110

 Side 1  free  transition at x/c =  0.5702   64
 Side 2  free  transition at x/c =  0.1841   37

   6   rms: 0.1473E-01   max: -.2749E+00   D at   37  2
       a =  2.000      CL =  1.3808
      Cm = -0.2615     CD =  0.01763   =>   CDf =  0.00693    CDp =  0.01070

 Side 1  free  transition at x/c =  0.5701   64
 Side 2  free  transition at x/c =  0.1851   37

   7   rms: 0.6077E-02   max: 0.2822E-01   D at   40  2
       a =  2.000      CL =  1.3820
      Cm = -0.2618     CD =  0.01748   =>   CDf =  0.00698    CDp =  0.01050

 Side 1  free  transition at x/c =  0.5701   64
 Side 2  free  transition at x/c =  0.1854   37

   8   rms: 0.5683E-04   max: 0.4568E-03   T at   37  2
       a =  2.000      CL =  1.3820
      Cm = -0.2618     CD =  0.01748   =>   CDf =  0.00697    CDp =  0.01052

 Point added to stored polar  1
 Point written to save file  000210M0.04.log                                 
 Dump file unspecified or not available
 Calculating wake trajectory ...
 Calculating source influence matrix ...

 Solving BL system ...

 Side 1  free  transition at x/c =  0.5701   64
 Side 2  free  transition at x/c =  0.1854   37

   1   rms: 0.1699E+00   max: -.1048E+01   T at   37  2   RLX: 0.477
       a =  3.000      CL =  1.4355
      Cm = -0.2618     CD =  0.01738   =>   CDf =  0.00698    CDp =  0.01040

 Side 1  free  transition at x/c =  0.5540   64
 Side 2  free  transition at x/c =  0.1967   38

   2   rms: 0.1187E+00   max: 0.1143E+01   D at   38  2
       a =  3.000      CL =  1.4945
      Cm = -0.2612     CD =  0.01784   =>   CDf =  0.00694    CDp =  0.01091

 Side 1  free  transition at x/c =  0.5432   64
 Side 2  free  transition at x/c =  0.2007   37

   3   rms: 0.1436E-01   max: -.9359E-01   D at   64  1
       a =  3.000      CL =  1.4914
      Cm = -0.2607     CD =  0.01780   =>   CDf =  0.00709    CDp =  0.01071

 Side 1  free  transition at x/c =  0.5413   64
 Side 2  free  transition at x/c =  0.2001   37

   4   rms: 0.3790E-03   max: 0.2337E-02   D at   38  2
       a =  3.000      CL =  1.4917
      Cm = -0.2607     CD =  0.01781   =>   CDf =  0.00703    CDp =  0.01079

 Side 1  free  transition at x/c =  0.5413   64
 Side 2  free  transition at x/c =  0.2001   37

   5   rms: 0.4094E-05   max: -.1985E-04   D at   81  1
       a =  3.000      CL =  1.4917
      Cm = -0.2607     CD =  0.01781   =>   CDf =  0.00703    CDp =  0.01079

 Point added to stored polar  1
 Point written to save file  000210M0.04.log                                 
 Dump file unspecified or not available
 Calculating wake trajectory ...
 Calculating source influence matrix ...

 Solving BL system ...

 Side 1  free  transition at x/c =  0.5413   64
 Side 2  free  transition at x/c =  0.2001   37

   1   rms: 0.1516E+00   max: -.9828E+00   T at   37  2   RLX: 0.509
       a =  4.000      CL =  1.5465
      Cm = -0.2601     CD =  0.01802   =>   CDf =  0.00680    CDp =  0.01121

 Side 1  free  transition at x/c =  0.5253   64
 Side 2  free  transition at x/c =  0.2113   37

   2   rms: 0.9653E-01   max: 0.8575E+00   D at   37  2
       a =  4.000      CL =  1.5941
      Cm = -0.2584     CD =  0.01841   =>   CDf =  0.00732    CDp =  0.01110

 Side 1  free  transition at x/c =  0.5095   64
 Side 2  free  transition at x/c =  0.2164   37

   3   rms: 0.1132E-01   max: -.1096E+00   D at   64  1
       a =  4.000      CL =  1.5953
      Cm = -0.2586     CD =  0.01846   =>   CDf =  0.00724    CDp =  0.01123

 Side 1  free  transition at x/c =  0.5117   64
 Side 2  free  transition at x/c =  0.2165   37

   4   rms: 0.7173E-03   max: -.8295E-02   D at   65  1
       a =  4.000      CL =  1.5959
      Cm = -0.2587     CD =  0.01848   =>   CDf =  0.00715    CDp =  0.01132

 Side 1  free  transition at x/c =  0.5115   64
 Side 2  free  transition at x/c =  0.2165   37

   5   rms: 0.7686E-05   max: -.6767E-04   D at   65  1
       a =  4.000      CL =  1.5959
      Cm = -0.2587     CD =  0.01848   =>   CDf =  0.00716    CDp =  0.01132

 Point added to stored polar  1
 Point written to save file  000210M0.04.log                                 
 Dump file unspecified or not available
 Calculating wake trajectory ...
 Calculating source influence matrix ...

 Solving BL system ...

 Side 1  free  transition at x/c =  0.5115   64
 Side 2  free  transition at x/c =  0.2165   37

   1   rms: 0.1464E+00   max: -.9041E+00   T at   37  2   RLX: 0.553
       a =  5.000      CL =  1.6528
      Cm = -0.2574     CD =  0.01904   =>   CDf =  0.00692    CDp =  0.01212

 Side 1  free  transition at x/c =  0.4967   64
 Side 2  free  transition at x/c =  0.2284   37

   2   rms: 0.7896E-01   max: 0.6675E+00   D at   37  2
       a =  5.000      CL =  1.6904
      Cm = -0.2550     CD =  0.01930   =>   CDf =  0.00704    CDp =  0.01226

 Side 1  free  transition at x/c =  0.4810   64
 Side 2  free  transition at x/c =  0.2340   36

   3   rms: 0.1114E-01   max: -.9170E-01   D at   64  1
       a =  5.000      CL =  1.6911
      Cm = -0.2552     CD =  0.01951   =>   CDf =  0.00731    CDp =  0.01220

 Side 1  free  transition at x/c =  0.4818   64
 Side 2  free  transition at x/c =  0.2343   36

   4   rms: 0.7234E-03   max: -.3644E-02   D at   81  2
       a =  5.000      CL =  1.6916
      Cm = -0.2553     CD =  0.01952   =>   CDf =  0.00726    CDp =  0.01226

 Side 1  free  transition at x/c =  0.4816   64
 Side 2  free  transition at x/c =  0.2344   36

   5   rms: 0.4652E-05   max: 0.2041E-04   D at   82  2
       a =  5.000      CL =  1.6916
      Cm = -0.2553     CD =  0.01952   =>   CDf =  0.00726    CDp =  0.01226

 Point added to stored polar  1
 Point written to save file  000210M0.04.log                                 
 Dump file unspecified or not available
 Calculating wake trajectory ...
 Calculating source influence matrix ...

 Solving BL system ...

 Side 1  free  transition at x/c =  0.4816   64
 Side 2  free  transition at x/c =  0.2344   36

   1   rms: 0.1333E+00   max: -.7827E+00   T at   36  2   RLX: 0.639
       a =  6.000      CL =  1.7464
      Cm = -0.2521     CD =  0.02023   =>   CDf =  0.00727    CDp =  0.01295

 Side 1  free  transition at x/c =  0.4599   63
 Side 2  free  transition at x/c =  0.2482   37

   2   rms: 0.5824E-01   max: 0.5231E+00   D at   37  2
       a =  6.000      CL =  1.7670
      Cm = -0.2486     CD =  0.02094   =>   CDf =  0.00718    CDp =  0.01377

 Side 1  free  transition at x/c =  0.4502   64
 Side 2  free  transition at x/c =  0.2525   36

   3   rms: 0.4995E-02   max: -.3132E-01   D at   64  1
       a =  6.000      CL =  1.7680
      Cm = -0.2487     CD =  0.02100   =>   CDf =  0.00730    CDp =  0.01370

 Side 1  free  transition at x/c =  0.4509   64
 Side 2  free  transition at x/c =  0.2529   36

   4   rms: 0.3423E-03   max: -.1917E-02   D at   76  2
       a =  6.000      CL =  1.7683
      Cm = -0.2488     CD =  0.02100   =>   CDf =  0.00728    CDp =  0.01372

 Side 1  free  transition at x/c =  0.4509   64
 Side 2  free  transition at x/c =  0.2529   36

   5   rms: 0.4021E-05   max: -.1980E-04   D at   75  2
       a =  6.000      CL =  1.7683
      Cm = -0.2488     CD =  0.02100   =>   CDf =  0.00728    CDp =  0.01371

 Point added to stored polar  1
 Point written to save file  000210M0.04.log                                 
 Dump file unspecified or not available
 Calculating wake trajectory ...
 Calculating source influence matrix ...

 Solving BL system ...

 Side 1  free  transition at x/c =  0.4509   64
 Side 2  free  transition at x/c =  0.2529   36

   1   rms: 0.1274E+00   max: -.6729E+00   T at   36  2   RLX: 0.743
       a =  7.000      CL =  1.8141
      Cm = -0.2422     CD =  0.02250   =>   CDf =  0.00701    CDp =  0.01549

 Side 1  free  transition at x/c =  0.4305   64
 Side 2  free  transition at x/c =  0.2685   36

   2   rms: 0.4454E-01   max: -.3491E+00   D at   64  1
       a =  7.000      CL =  1.8301
      Cm = -0.2406     CD =  0.02314   =>   CDf =  0.00737    CDp =  0.01577

 Side 1  free  transition at x/c =  0.4223   63
 Side 2  free  transition at x/c =  0.2720   36

   3   rms: 0.1078E-01   max: -.6127E-01   D at   88  1
       a =  7.000      CL =  1.8358
      Cm = -0.2416     CD =  0.02327   =>   CDf =  0.00737    CDp =  0.01590

 Side 1  free  transition at x/c =  0.4213   63
 Side 2  free  transition at x/c =  0.2728   36

   4   rms: 0.2995E-03   max: -.2280E-02   D at   82  2
       a =  7.000      CL =  1.8360
      Cm = -0.2416     CD =  0.02329   =>   CDf =  0.00737    CDp =  0.01592

 Side 1  free  transition at x/c =  0.4212   63
 Side 2  free  transition at x/c =  0.2728   36

   5   rms: 0.2218E-05   max: 0.1754E-04   D at   37  2
       a =  7.000      CL =  1.8360
      Cm = -0.2416     CD =  0.02329   =>   CDf =  0.00737    CDp =  0.01592

 Point added to stored polar  1
 Point written to save file  000210M0.04.log                                 
 Dump file unspecified or not available
 Calculating wake trajectory ...
 Calculating source influence matrix ...

 Solving BL system ...

 Side 1  free  transition at x/c =  0.4212   63
 Side 2  free  transition at x/c =  0.2728   36

   1   rms: 0.1252E+00   max: -.6777E+00   T at   36  2   RLX: 0.738
       a =  8.000      CL =  1.8834
      Cm = -0.2363     CD =  0.02506   =>   CDf =  0.00709    CDp =  0.01798

 Side 1  free  transition at x/c =  0.3968   63
 Side 2  free  transition at x/c =  0.2895   36

   2   rms: 0.3233E-01   max: -.2263E+00   D at   63  1
       a =  8.000      CL =  1.8913
      Cm = -0.2336     CD =  0.02645   =>   CDf =  0.00748    CDp =  0.01897

 Side 1  free  transition at x/c =  0.3916   63
 Side 2  free  transition at x/c =  0.2937   36

   3   rms: 0.6792E-02   max: -.4326E-01   D at   36  2
       a =  8.000      CL =  1.8944
      Cm = -0.2340     CD =  0.02639   =>   CDf =  0.00730    CDp =  0.01909

 Side 1  free  transition at x/c =  0.3913   63
 Side 2  free  transition at x/c =  0.2944   36

   4   rms: 0.5923E-04   max: 0.4106E-03   D at   37  2
       a =  8.000      CL =  1.8945
      Cm = -0.2340     CD =  0.02640   =>   CDf =  0.00732    CDp =  0.01908

 Point added to stored polar  1
 Point written to save file  000210M0.04.log                                 
 Dump file unspecified or not available
 Calculating wake trajectory ...
 Calculating source influence matrix ...

 Solving BL system ...

 Side 1  free  transition at x/c =  0.3913   63
 Side 2  free  transition at x/c =  0.2944   36

   1   rms: 0.1271E+00   max: -.6672E+00   T at   36  2   RLX: 0.749
       a =  9.000      CL =  1.9338
      Cm = -0.2280     CD =  0.02924   =>   CDf =  0.00703    CDp =  0.02221

 Side 1  free  transition at x/c =  0.3709   63
 Side 2  free  transition at x/c =  0.3125   36

   2   rms: 0.3662E-01   max: -.3483E+00   D at   63  1
       a =  9.000      CL =  1.9416
      Cm = -0.2259     CD =  0.03050   =>   CDf =  0.00736    CDp =  0.02314

 Side 1  free  transition at x/c =  0.3636   62
 Side 2  free  transition at x/c =  0.3171   36

   3   rms: 0.8469E-02   max: -.4956E-01   D at   36  2
       a =  9.000      CL =  1.9437
      Cm = -0.2261     CD =  0.03062   =>   CDf =  0.00736    CDp =  0.02326

 Side 1  free  transition at x/c =  0.3629   62
 Side 2  free  transition at x/c =  0.3179   36

   4   rms: 0.2408E-03   max: 0.1347E-02   D at   37  2
       a =  9.000      CL =  1.9439
      Cm = -0.2262     CD =  0.03063   =>   CDf =  0.00736    CDp =  0.02326

 Side 1  free  transition at x/c =  0.3629   62
 Side 2  free  transition at x/c =  0.3179   36

   5   rms: 0.3653E-05   max: 0.2524E-04   D at   37  2
       a =  9.000      CL =  1.9439
      Cm = -0.2262     CD =  0.03063   =>   CDf =  0.00736    CDp =  0.02326

 Point added to stored polar  1
 Point written to save file  000210M0.04.log                                 
 Dump file unspecified or not available
 Calculating wake trajectory ...
 Calculating source influence matrix ...

 Solving BL system ...

 Side 1  free  transition at x/c =  0.3629   62
 Side 2  free  transition at x/c =  0.3179   36

   1   rms: 0.1250E+00   max: -.6972E+00   T at   36  2   RLX: 0.717
       a = 10.000      CL =  1.9823
      Cm = -0.2216     CD =  0.03369   =>   CDf =  0.00707    CDp =  0.02662

 Side 1  free  transition at x/c =  0.3408   62
 Side 2  free  transition at x/c =  0.3389   36

   2   rms: 0.3709E-01   max: 0.3218E+00   D at   36  2
       a = 10.000      CL =  1.9854
      Cm = -0.2187     CD =  0.03596   =>   CDf =  0.00741    CDp =  0.02855

 Side 1  free  transition at x/c =  0.3355   62
 Side 2  free  transition at x/c =  0.3432   36

   3   rms: 0.4822E-02   max: -.3286E-01   D at   36  2
       a = 10.000      CL =  1.9869
      Cm = -0.2188     CD =  0.03585   =>   CDf =  0.00723    CDp =  0.02862

 Side 1  free  transition at x/c =  0.3352   62
 Side 2  free  transition at x/c =  0.3441   36

   4   rms: 0.8118E-04   max: -.8010E-03   D at   79  2
       a = 10.000      CL =  1.9870
      Cm = -0.2188     CD =  0.03585   =>   CDf =  0.00723    CDp =  0.02861

 Point added to stored polar  1
 Point written to save file  000210M0.04.log                                 
 Dump file unspecified or not available
 Calculating wake trajectory ...
 Calculating source influence matrix ...

 Solving BL system ...

 Side 1  free  transition at x/c =  0.3352   62
 Side 2  free  transition at x/c =  0.3441   36

   1   rms: 0.1253E+00   max: -.6983E+00   T at   36  2   RLX: 0.716
       a = 11.000      CL =  2.0133
      Cm = -0.2136     CD =  0.04028   =>   CDf =  0.00694    CDp =  0.03334

 MRCHDU: Convergence failed at  37  side 2    Res =  0.4156E+01
 MRCHDU: Convergence failed at  38  side 2    Res =  0.1186E+02
 MRCHDU: Convergence failed at  39  side 2    Res =  0.4633E+01
 MRCHDU: Convergence failed at  40  side 2    Res =  0.5255E+01
 MRCHDU: Convergence failed at  41  side 2    Res =  0.3841E+01
 MRCHDU: Convergence failed at  42  side 2    Res =  0.4544E+01
 MRCHDU: Convergence failed at  43  side 2    Res =  0.5181E+01
 MRCHDU: Convergence failed at  44  side 2    Res =  0.5446E+01
 MRCHDU: Convergence failed at  45  side 2    Res =  0.5507E+01
 MRCHDU: Convergence failed at  46  side 2    Res =  0.5354E+01
 MRCHDU: Convergence failed at  47  side 2    Res =  0.5072E+01
 MRCHDU: Convergence failed at  48  side 2    Res =  0.4649E+01
 MRCHDU: Convergence failed at  49  side 2    Res =  0.4105E+01
 MRCHDU: Convergence failed at  50  side 2    Res =  0.3583E+01
 MRCHDU: Convergence failed at  51  side 2    Res =  0.3048E+01
 MRCHDU: Convergence failed at  52  side 2    Res =  0.5666E+01
 MRCHDU: Convergence failed at  53  side 2    Res =  0.5202E+01
 MRCHDU: Convergence failed at  54  side 2    Res =  0.5160E+01
 MRCHDU: Convergence failed at  55  side 2    Res =  0.5060E+01
 MRCHDU: Convergence failed at  56  side 2    Res =  0.5357E+01
 Side 1  free  transition at x/c =  0.3173   62
 Side 2  free  transition at x/c =  0.3687   36

   2   rms: 0.1369E+00   max: 0.9271E+00   T at   36  2   RLX: 0.725
       a = 11.000      CL =  2.0064
      Cm = -0.2088     CD =  0.04177   =>   CDf =  0.00652    CDp =  0.03525

 Side 1  free  transition at x/c =  0.3115   62
 Side 2  free  transition at x/c =  0.3489   35

   3   rms: 0.2208E+00   max: -.2299E+01   T at   35  2   RLX: 0.218
       a = 11.000      CL =  2.0169
      Cm = -0.2109     CD =  0.04290   =>   CDf =  0.00728    CDp =  0.03562

 MRCHDU: Convergence failed at  36  side 2    Res =  0.1690E-01
 Side 1  free  transition at x/c =  0.3111   62
 Side 2  free  transition at x/c =  0.3678   36

   4   rms: 0.1199E+00   max: -.1070E+01   D at   40  2   RLX: 0.467
       a = 11.000      CL =  2.0167
      Cm = -0.2109     CD =  0.04250   =>   CDf =  0.00727    CDp =  0.03522

 MRCHDU: Convergence failed at  38  side 2    Res =  0.1017E+01
 MRCHDU: Convergence failed at  39  side 2    Res =  0.3180E+01
 MRCHDU: Convergence failed at  40  side 2    Res =  0.3837E+01
 MRCHDU: Convergence failed at  41  side 2    Res =  0.4348E+01
 Side 1  free  transition at x/c =  0.3104   62
 Side 2  free  transition at x/c =  0.3825   37

   5   rms: 0.8047E-01   max: 0.6779E+00   T at   39  2
       a = 11.000      CL =  2.0213
      Cm = -0.2118     CD =  0.04236   =>   CDf =  0.00705    CDp =  0.03531

 Side 1  free  transition at x/c =  0.3095   62
 Side 2  free  transition at x/c =  0.3718   37

   6   rms: 0.1574E-01   max: -.1866E+00   D at   38  2
       a = 11.000      CL =  2.0198
      Cm = -0.2115     CD =  0.04241   =>   CDf =  0.00722    CDp =  0.03519

 Side 1  free  transition at x/c =  0.3096   62
 Side 2  free  transition at x/c =  0.3727   37

   7   rms: 0.7731E-03   max: -.1218E-01   D at   38  2
       a = 11.000      CL =  2.0197
      Cm = -0.2115     CD =  0.04241   =>   CDf =  0.00721    CDp =  0.03520

 Side 1  free  transition at x/c =  0.3096   62
 Side 2  free  transition at x/c =  0.3725   37

   8   rms: 0.1217E-04   max: -.1783E-03   D at   38  2
       a = 11.000      CL =  2.0197
      Cm = -0.2115     CD =  0.04241   =>   CDf =  0.00722    CDp =  0.03519

 Point added to stored polar  1
 Point written to save file  000210M0.04.log                                 
 Dump file unspecified or not available
 Calculating wake trajectory ...
 Calculating source influence matrix ...

 Solving BL system ...

 Side 1  free  transition at x/c =  0.3096   62
 Side 2  free  transition at x/c =  0.3725   37

   1   rms: 0.1401E+00   max: -.9099E+00   T at   37  2   RLX: 0.550
       a = 12.000      CL =  2.0350
      Cm = -0.2077     CD =  0.04665   =>   CDf =  0.00724    CDp =  0.03941

 Side 1  free  transition at x/c =  0.2975   61
 Side 2  free  transition at x/c =  0.3888   37

   2   rms: 0.6927E-01   max: -.4992E+00   T at   37  2
       a = 12.000      CL =  2.0477
      Cm = -0.2050     CD =  0.05009   =>   CDf =  0.00681    CDp =  0.04329

 MRCHDU: Convergence failed at  38  side 2    Res =  0.1768E+01
 MRCHDU: Convergence failed at  39  side 2    Res =  0.9228E+01
 MRCHDU: Convergence failed at  40  side 2    Res =  0.3682E+01
 MRCHDU: Convergence failed at  41  side 2    Res =  0.3630E+01
 MRCHDU: Convergence failed at  42  side 2    Res =  0.3647E+01
 MRCHDU: Convergence failed at  43  side 2    Res =  0.3725E+01
 MRCHDU: Convergence failed at  44  side 2    Res =  0.3738E+01
 MRCHDU: Convergence failed at  45  side 2    Res =  0.3694E+01
 MRCHDU: Convergence failed at  46  side 2    Res =  0.3606E+01
 MRCHDU: Convergence failed at  47  side 2    Res =  0.3628E+01
 MRCHDU: Convergence failed at  48  side 2    Res =  0.3547E+01
 MRCHDU: Convergence failed at  49  side 2    Res =  0.3480E+01
 MRCHDU: Convergence failed at  50  side 2    Res =  0.4736E+01
 MRCHDU: Convergence failed at  51  side 2    Res =  0.6204E+01
 MRCHDU: Convergence failed at  52  side 2    Res =  0.1051E+02
 Side 1  free  transition at x/c =  0.2865   61
 Side 2  free  transition at x/c =  0.4104   37

   3   rms: 0.1037E+00   max: 0.6924E+00   T at   37  2   RLX: 0.726
       a = 12.000      CL =  2.0437
      Cm = -0.2037     CD =  0.05005   =>   CDf =  0.00659    CDp =  0.04345

 Side 1  free  transition at x/c =  0.2859   61
 Side 2  free  transition at x/c =  0.3910   36

   4   rms: 0.6353E-01   max: -.7882E+00   D at   38  2   RLX: 0.634
       a = 12.000      CL =  2.0466
      Cm = -0.2045     CD =  0.05025   =>   CDf =  0.00711    CDp =  0.04314

 MRCHDU: Convergence failed at  37  side 2    Res =  0.6125E+01
 MRCHDU: Convergence failed at  38  side 2    Res =  0.5530E+01
 MRCHDU: Convergence failed at  39  side 2    Res =  0.6005E+01
 MRCHDU: Convergence failed at  40  side 2    Res =  0.3280E+01
 MRCHDU: Convergence failed at  41  side 2    Res =  0.5326E+01
 MRCHDU: Convergence failed at  42  side 2    Res =  0.7677E+01
 MRCHDU: Convergence failed at  43  side 2    Res =  0.9461E+01
 MRCHDU: Convergence failed at  44  side 2    Res =  0.1032E+02
 MRCHDU: Convergence failed at  45  side 2    Res =  0.1024E+02
 MRCHDU: Convergence failed at  46  side 2    Res =  0.9499E+01
 MRCHDU: Convergence failed at  47  side 2    Res =  0.8359E+01
 MRCHDU: Convergence failed at  48  side 2    Res =  0.7124E+01
 MRCHDU: Convergence failed at  49  side 2    Res =  0.5921E+01
 MRCHDU: Convergence failed at  50  side 2    Res =  0.4879E+01
 MRCHDU: Convergence failed at  51  side 2    Res =  0.3976E+01
 MRCHDU: Convergence failed at  52  side 2    Res =  0.3234E+01
 MRCHDU: Convergence failed at  53  side 2    Res =  0.2438E+01
 Side 1  free  transition at x/c =  0.2859   61
 Side 2  free  transition at x/c =  0.4061   37

   5   rms: 0.1945E+00   max: -.1074E+01   D at   51  2   RLX: 0.465
       a = 12.000      CL =  2.0394
      Cm = -0.2018     CD =  0.04983   =>   CDf =  0.00641    CDp =  0.04342

 Side 1  free  transition at x/c =  0.2857   61
 Side 2  free  transition at x/c =  0.4076   37

   6   rms: 0.5355E-01   max: -.6463E+00   D at   39  2   RLX: 0.774
       a = 12.000      CL =  2.0469
      Cm = -0.2045     CD =  0.05006   =>   CDf =  0.00718    CDp =  0.04288

 Side 1  free  transition at x/c =  0.2858   61
 Side 2  free  transition at x/c =  0.4074   37

   7   rms: 0.1625E-01   max: -.2866E+00   D at   39  2
       a = 12.000      CL =  2.0487
      Cm = -0.2051     CD =  0.05004   =>   CDf =  0.00706    CDp =  0.04298

 Side 1  free  transition at x/c =  0.2858   61
 Side 2  free  transition at x/c =  0.4069   37

   8   rms: 0.2186E-02   max: -.4355E-01   D at   39  2
       a = 12.000      CL =  2.0487
      Cm = -0.2051     CD =  0.05004   =>   CDf =  0.00704    CDp =  0.04300

 Side 1  free  transition at x/c =  0.2858   61
 Side 2  free  transition at x/c =  0.4064   37

   9   rms: 0.5668E-04   max: -.1322E-02   D at   39  2
       a = 12.000      CL =  2.0487
      Cm = -0.2051     CD =  0.05004   =>   CDf =  0.00704    CDp =  0.04300

 Point added to stored polar  1
 Point written to save file  000210M0.04.log                                 
 Dump file unspecified or not available
 Calculating wake trajectory ...
 Calculating source influence matrix ...

 Solving BL system ...

 Side 1  free  transition at x/c =  0.2858   61
 Side 2  free  transition at x/c =  0.4064   37

   1   rms: 0.1214E+00   max: -.7825E+00   T at   37  2   RLX: 0.636
       a = 13.000      CL =  2.0715
      Cm = -0.2020     CD =  0.05505   =>   CDf =  0.00707    CDp =  0.04799

 Side 1  free  transition at x/c =  0.2703   60
 Side 2  free  transition at x/c =  0.4352   39

   2   rms: 0.5146E-01   max: 0.2659E+00   D at   39  2
       a = 13.000      CL =  2.0732
      Cm = -0.2000     CD =  0.05912   =>   CDf =  0.00676    CDp =  0.05236

 Side 1  free  transition at x/c =  0.2635   61
 Side 2  free  transition at x/c =  0.4495   38

   3   rms: 0.5852E-02   max: -.9342E-01   D at   39  2
       a = 13.000      CL =  2.0713
      Cm = -0.1996     CD =  0.05896   =>   CDf =  0.00686    CDp =  0.05210

 Side 1  free  transition at x/c =  0.2637   61
 Side 2  free  transition at x/c =  0.4490   38

   4   rms: 0.6150E-03   max: -.6681E-02   D at    4  1
       a = 13.000      CL =  2.0714
      Cm = -0.1996     CD =  0.05895   =>   CDf =  0.00684    CDp =  0.05210

 Side 1  free  transition at x/c =  0.2637   61
 Side 2  free  transition at x/c =  0.4489   38

   5   rms: 0.9825E-05   max: -.7910E-04   D at   79  2
       a = 13.000      CL =  2.0714
      Cm = -0.1996     CD =  0.05895   =>   CDf =  0.00684    CDp =  0.05210

 Point added to stored polar  1
 Point written to save file  000210M0.04.log                                 
 Dump file unspecified or not available
 Calculating wake trajectory ...
 Calculating source influence matrix ...

 Solving BL system ...

 Side 1  free  transition at x/c =  0.2637   61
 Side 2  free  transition at x/c =  0.4489   38

   1   rms: 0.1217E+00   max: -.7830E+00   T at   38  2   RLX: 0.559
       a = 14.000      CL =  2.0836
      Cm = -0.1969     CD =  0.06453   =>   CDf =  0.00687    CDp =  0.05766

 MRCHDU: Convergence failed at  40  side 2    Res =  0.3067E+01
 MRCHDU: Convergence failed at  41  side 2    Res =  0.2651E+01
 MRCHDU: Convergence failed at  42  side 2    Res =  0.3077E+01
 MRCHDU: Convergence failed at  43  side 2    Res =  0.5504E+01
 MRCHDU: Convergence failed at  44  side 2    Res =  0.1056E+02
 MRCHDU: Convergence failed at  45  side 2    Res =  0.1209E+02
 MRCHDU: Convergence failed at  46  side 2    Res =  0.8653E+01
 Side 1  free  transition at x/c =  0.2524   60
 Side 2  free  transition at x/c =  0.4819   40

   2   rms: 0.1040E+00   max: -.8290E+00   D at   46  2   RLX: 0.603
       a = 14.000      CL =  2.0833
      Cm = -0.1950     CD =  0.06744   =>   CDf =  0.00662    CDp =  0.06082

 Side 1  free  transition at x/c =  0.2467   60
 Side 2  free  transition at x/c =  0.5048   41

   3   rms: 0.3368E-01   max: -.4251E+00   D at   42  2
       a = 14.000      CL =  2.0890
      Cm = -0.1949     CD =  0.06898   =>   CDf =  0.00671    CDp =  0.06227

 Side 1  free  transition at x/c =  0.2433   60
 Side 2  free  transition at x/c =  0.5167   42

   4   rms: 0.4799E-02   max: -.9755E-01   D at   41  2
       a = 14.000      CL =  2.0876
      Cm = -0.1948     CD =  0.06901   =>   CDf =  0.00667    CDp =  0.06235

 Side 1  free  transition at x/c =  0.2434   60
 Side 2  free  transition at x/c =  0.5150   42

   5   rms: 0.7347E-03   max: 0.1134E-01   C at   42  2
       a = 14.000      CL =  2.0877
      Cm = -0.1948     CD =  0.06900   =>   CDf =  0.00665    CDp =  0.06235

 Side 1  free  transition at x/c =  0.2434   60
 Side 2  free  transition at x/c =  0.5147   42

   6   rms: 0.5125E-05   max: -.4291E-04   D at   42  2
       a = 14.000      CL =  2.0877
      Cm = -0.1948     CD =  0.06900   =>   CDf =  0.00665    CDp =  0.06235

 Point added to stored polar  1
 Point written to save file  000210M0.04.log                                 
 Dump file unspecified or not available
 Calculating wake trajectory ...
 Calculating source influence matrix ...

 Solving BL system ...

 Side 1  free  transition at x/c =  0.2434   60
 Side 2  free  transition at x/c =  0.5147   42

   1   rms: 0.1652E+00   max: -.1735E+01   C at   42  2   RLX: 0.288
       a = 15.000      CL =  2.0910
      Cm = -0.1936     CD =  0.07232   =>   CDf =  0.00631    CDp =  0.06601

 Side 1  free  transition at x/c =  0.2384   60
 Side 2  free  transition at x/c =  0.5397   42

   2   rms: 0.1371E+00   max: -.1697E+01   C at   42  2   RLX: 0.295
       a = 15.000      CL =  2.0955
      Cm = -0.1928     CD =  0.07445   =>   CDf =  0.00669    CDp =  0.06776

 Side 1  free  transition at x/c =  0.2345   60
 Side 2  free  transition at x/c =  0.5698   43

   3   rms: 0.2490E+00   max: -.4620E+01   C at   43  2   RLX: 0.108
       a = 15.000      CL =  2.0967
      Cm = -0.1928     CD =  0.07481   =>   CDf =  0.00652    CDp =  0.06829

 Side 1  free  transition at x/c =  0.2334   60
 Side 2  free  transition at x/c =  0.5758   44

   4   rms: 0.2053E+00   max: -.3492E+01   C at   44  2   RLX: 0.143
       a = 15.000      CL =  2.0984
      Cm = -0.1928     CD =  0.07552   =>   CDf =  0.00651    CDp =  0.06901

 Side 1  free  transition at x/c =  0.2321   60
 Side 2  free  transition at x/c =  0.5892   44

   5   rms: 0.7928E-01   max: -.7901E+00   T at   44  2   RLX: 0.633
       a = 15.000      CL =  2.1011
      Cm = -0.1920     CD =  0.07855   =>   CDf =  0.00649    CDp =  0.07207

 Side 1  free  transition at x/c =  0.2273   60
 Side 2 forced transition at x/c =  1.0001   65

   6   rms: 0.3331E-01   max: 0.4843E+00   D at   44  2
       a = 15.000      CL =  2.0994
      Cm = -0.1906     CD =  0.07970   =>   CDf =  0.00624    CDp =  0.07346

 Side 1  free  transition at x/c =  0.2253   60
 Side 2 forced transition at x/c =  1.0001   65

   7   rms: 0.3601E-02   max: 0.4391E-01   D at   45  2
       a = 15.000      CL =  2.0990
      Cm = -0.1906     CD =  0.07954   =>   CDf =  0.00626    CDp =  0.07328

 Side 1  free  transition at x/c =  0.2252   60
 Side 2 forced transition at x/c =  1.0001   65

   8   rms: 0.1050E-03   max: 0.7625E-03   D at   41  2
       a = 15.000      CL =  2.0990
      Cm = -0.1906     CD =  0.07954   =>   CDf =  0.00626    CDp =  0.07328

 Side 1  free  transition at x/c =  0.2252   60
 Side 2 forced transition at x/c =  1.0001   65

   9   rms: 0.3020E-05   max: 0.2182E-04   D at   82  2
       a = 15.000      CL =  2.0990
      Cm = -0.1906     CD =  0.07954   =>   CDf =  0.00626    CDp =  0.07328

 Point added to stored polar  1
 Point written to save file  000210M0.04.log                                 
 Dump file unspecified or not available

.OPERva   c>  
 XFOIL   c>  
0.1
resp: 
 ===================================================
  XFOIL Version 6.97
  Copyright (C) 2000   Mark Drela, Harold Youngren

  This software comes with ABSOLUTELY NO WARRANTY,
    subject to the GNU General Public License.

  Caveat computor
 ===================================================

 File  xfoil.def  not found

   QUIT    Exit program

  .OPER    Direct operating point(s)
  .MDES    Complex mapping design routine
  .QDES    Surface speed design routine
  .GDES    Geometry design routine

   SAVE f  Write airfoil to labeled coordinate file
   PSAV f  Write airfoil to plain coordinate file
   ISAV f  Write airfoil to ISES coordinate file
   MSAV f  Write airfoil to MSES coordinate file
   REVE    Reverse written-airfoil node ordering
   DELI i  Change written-airfoil file delimiters

   LOAD f  Read buffer airfoil from coordinate file
   NACA i  Set NACA 4,5-digit airfoil and buffer airfoil
   INTE    Set buffer airfoil by interpolating two airfoils
   NORM    Buffer airfoil normalization toggle
   HALF    Halve the number of points in buffer airfoil
   XYCM rr Change CM reference location, currently  0.25000 0.00000

   BEND    Display structural properties of current airfoil

   PCOP    Set current-airfoil panel nodes directly from buffer airfoil points
   PANE    Set current-airfoil panel nodes ( 160 ) based on curvature
  .PPAR    Show/change paneling

  .PLOP    Plotting options

   WDEF f  Write  current-settings file
   RDEF f  Reread current-settings file
   NAME s  Specify new airfoil name
   NINC    Increment name version number

   Z       Zoom    | (available in all menus)
   U       Unzoom  | 

 XFOIL   c>   ...............................................

  G raphics-enable flag:        T
  S ize of plot object          10.00"
  A spect ratio of plot object   0.5500
  P age dimensions              11.00 x  8.50"
  M argins from page edges       0.00",  0.00"
  F ont size (relative)          0.0150
  W indow/screen size fraction   0.8000
  B lowup input method:        Cursor    
  O rientation of plot:        Landscape 
  C olor PostScript output?     F

      Option, Value   (or <Return>)    c>   ...............................................

  G raphics-enable flag:        F
  S ize of plot object          10.00"
  A spect ratio of plot object   0.5500
  P age dimensions              11.00 x  8.50"
  M argins from page edges       0.00",  0.00"
  F ont size (relative)          0.0150
  W indow/screen size fraction   0.8000
  B lowup input method:        Cursor    
  O rientation of plot:        Landscape 
  C olor PostScript output?     F

      Option, Value   (or <Return>)    c>  
 XFOIL   c>  
 Labeled airfoil file.  Name:  000210                                          

 Number of input coordinate points: 200
 Clockwise ordering
 Max thickness =     0.184539  at x =   0.158
 Max camber    =     0.101422  at x =   0.500

  LE  x,y  =  -0.00000   0.00035  |   Chord =   0.99988
  TE  x,y  =   0.99988   0.00005  |

 Current airfoil nodes set from buffer airfoil nodes ( 200 )

 XFOIL   c>  
 You are working with the buffer airfoil

.GDES   c>  
  i       x        y      angle
   2   0.9990   0.0004    0.071
   3   0.9978   0.0009    0.001
   4   0.9961   0.0017   -0.005
   5   0.9938   0.0026    0.036
   6   0.9911   0.0037    0.034
   7   0.9880   0.0050    0.032
   8   0.9843   0.0066    0.031
   9   0.9801   0.0083    0.056
  10   0.9755   0.0102    0.045
  11   0.9704   0.0123    0.063
  12   0.9649   0.0146    0.061
  13   0.9589   0.0171    0.084
  14   0.9524   0.0197    0.097
  15   0.9455   0.0225    0.087
  16   0.9382   0.0255    0.117
  17   0.9304   0.0287    0.118
  18   0.9222   0.0320    0.140
  19   0.9135   0.0354    0.151
  20   0.9045   0.0390    0.160
  21   0.8951   0.0427    0.184
  22   0.8853   0.0465    0.194
  23   0.8751   0.0504    0.216
  24   0.8645   0.0544    0.227
  25   0.8536   0.0585    0.249
  26   0.8423   0.0627    0.268
  27   0.8307   0.0670    0.289
  28   0.8187   0.0713    0.299
  29   0.8065   0.0756    0.334
  30   0.7939   0.0800    0.342
  31   0.7810   0.0844    0.367
  32   0.7679   0.0887    0.389
  33   0.7545   0.0931    0.412
  34   0.7409   0.0974    0.431
  35   0.7270   0.1017    0.450
  36   0.7129   0.1060    0.477
  37   0.6986   0.1102    0.497
  38   0.6841   0.1143    0.515
  39   0.6694   0.1183    0.539
  40   0.6545   0.1222    0.554
  41   0.6395   0.1260    0.585
  42   0.6243   0.1297    0.599
  43   0.6091   0.1332    0.620
  44   0.5937   0.1366    0.639
  45   0.5782   0.1398    0.661
  46   0.5627   0.1428    0.678
  47   0.5471   0.1457    0.697
  48   0.5314   0.1484    0.716
  49   0.5157   0.1509    0.732
  50   0.5000   0.1531    0.755
  51   0.4843   0.1552    0.766
  52   0.4686   0.1571    0.785
  53   0.4529   0.1587    0.808
  54   0.4373   0.1601    0.817
  55   0.4218   0.1613    0.841
  56   0.4063   0.1622    0.856
  57   0.3909   0.1629    0.873
  58   0.3757   0.1634    0.897
  59   0.3605   0.1636    0.912
  60   0.3455   0.1636    0.929
  61   0.3306   0.1634    0.954
  62   0.3159   0.1629    0.978
  63   0.3014   0.1621    0.993
  64   0.2871   0.1612    1.027
  65   0.2730   0.1599    1.052
  66   0.2591   0.1585    1.078
  67   0.2455   0.1568    1.110
  68   0.2321   0.1549    1.142
  69   0.2190   0.1527    1.179
  70   0.2061   0.1503    1.220
  71   0.1935   0.1477    1.262
  72   0.1813   0.1449    1.306
  73   0.1693   0.1419    1.358
  74   0.1577   0.1386    1.417
  75   0.1464   0.1352    1.467
  76   0.1355   0.1315    1.532
  77   0.1249   0.1276    1.611
  78   0.1147   0.1236    1.678
  79   0.1049   0.1193    1.767
  80   0.0955   0.1149    1.851
  81   0.0865   0.1103    1.947
  82   0.0778   0.1056    2.051
  83   0.0696   0.1006    2.168
  84   0.0618   0.0956    2.288
  85   0.0545   0.0903    2.409
  86   0.0476   0.0850    2.560
  87   0.0411   0.0795    2.703
  88   0.0351   0.0739    2.854
  89   0.0296   0.0681    3.017
  90   0.0245   0.0623    3.184
  91   0.0199   0.0563    3.360
  92   0.0157   0.0503    3.540
  93   0.0120   0.0442    3.695
  94   0.0089   0.0380    3.874
  95   0.0062   0.0318    4.016
  96   0.0039   0.0255    4.149
  97   0.0022   0.0191    4.270
  98   0.0010   0.0128    4.345
  99   0.0002   0.0064    4.399
 100   0.0000   0.0000    4.909
 101   0.0002  -0.0052    5.400
 102   0.0010  -0.0104    5.437
 103   0.0022  -0.0156    5.511
 104   0.0039  -0.0206    5.562
 105   0.0062  -0.0254    5.642
 106   0.0089  -0.0300    5.703
 107   0.0120  -0.0344    5.698
 108   0.0157  -0.0385    5.687
 109   0.0199  -0.0424    5.613
 110   0.0245  -0.0458    5.451
 111   0.0296  -0.0490    5.249
 112   0.0351  -0.0517    4.989
 113   0.0411  -0.0541    4.694
 114   0.0476  -0.0560    4.374
 115   0.0545  -0.0575    4.003
 116   0.0618  -0.0586    3.677
 117   0.0696  -0.0592    3.315
 118   0.0778  -0.0594    2.999
 119   0.0865  -0.0591    2.668
 120   0.0955  -0.0585    2.381
 121   0.1049  -0.0573    2.106
 122   0.1147  -0.0558    1.848
 123   0.1249  -0.0539    1.602
 124   0.1355  -0.0516    1.397
 125   0.1464  -0.0489    1.193
 126   0.1577  -0.0459    1.003
 127   0.1693  -0.0426    0.827
 128   0.1813  -0.0390    0.678
 129   0.1935  -0.0352    0.522
 130   0.2061  -0.0311    0.391
 131   0.2190  -0.0268    0.255
 132   0.2321  -0.0224    0.141
 133   0.2455  -0.0179    0.029
 134   0.2591  -0.0133   -0.077
 135   0.2730  -0.0086   -0.173
 136   0.2871  -0.0039   -0.269
 137   0.3014   0.0008   -0.348
 138   0.3159   0.0055   -0.430
 139   0.3306   0.0101   -0.506
 140   0.3455   0.0147   -0.571
 141   0.3605   0.0191   -0.635
 142   0.3757   0.0233   -0.692
 143   0.3909   0.0275   -0.746
 144   0.4063   0.0314   -0.794
 145   0.4218   0.0351   -0.833
 146   0.4373   0.0386   -0.870
 147   0.4529   0.0418   -0.903
 148   0.4686   0.0449   -0.925
 149   0.4843   0.0476   -0.950
 150   0.5000   0.0501   -0.963
 151   0.5157   0.0523   -0.976
 152   0.5314   0.0543   -0.983
 153   0.5471   0.0560   -0.985
 154   0.5627   0.0573   -0.979
 155   0.5782   0.0585   -0.972
 156   0.5937   0.0593   -0.970
 157   0.6091   0.0599   -0.951
 158   0.6243   0.0602   -0.935
 159   0.6395   0.0603   -0.917
 160   0.6545   0.0602   -0.893
 161   0.6694   0.0598   -0.878
 162   0.6841   0.0592   -0.841
 163   0.6986   0.0583   -0.825
 164   0.7129   0.0573   -0.791
 165   0.7270   0.0561   -0.765
 166   0.7409   0.0548   -0.737
 167   0.7545   0.0533   -0.709
 168   0.7679   0.0516   -0.676
 169   0.7810   0.0498   -0.646
 170   0.7939   0.0479   -0.623
 171   0.8065   0.0459   -0.587
 172   0.8187   0.0439   -0.563
 173   0.8307   0.0417   -0.536
 174   0.8423   0.0396   -0.504
 175   0.8536   0.0373   -0.482
 176   0.8645   0.0351   -0.452
 177   0.8751   0.0328   -0.427
 178   0.8853   0.0305   -0.408
 179   0.8951   0.0283   -0.380
 180   0.9045   0.0260   -0.356
 181   0.9135   0.0238   -0.334
 182   0.9222   0.0217   -0.316
 183   0.9304   0.0196   -0.287
 184   0.9382   0.0175   -0.283
 185   0.9455   0.0156   -0.239
 186   0.9524   0.0137   -0.250
 187   0.9589   0.0119   -0.199
 188   0.9649   0.0103   -0.212
 189   0.9704   0.0087   -0.170
 190   0.9755   0.0072   -0.152
 191   0.9801   0.0059   -0.154
 192   0.9843   0.0047   -0.128
 193   0.9880   0.0036   -0.106
 194   0.9911   0.0027   -0.101
 195   0.9938   0.0019   -0.080
 196   0.9961   0.0012   -0.052
 197   0.9978   0.0007   -0.047
 198   0.9990   0.0003   -0.040
 199   0.9998   0.0001   -0.049

 Maximum panel corner angle =  5.703   at  i,x,y  = 106   0.0089  -0.0300

 Enter corner angle criterion for refinement (deg):   2.851
 Enter type of spline parameter (1=uniform, 2=arclength):   1
 Enter refinement x limits:  -0.10000   1.10000
 Number of points added:           62
 Max thickness =     0.184521  at x =   0.158
 Max camber    =     0.101598  at x =   0.500

 Maximum panel corner angle =  2.560   at  i,x,y  =  86   0.0476   0.0850

.GDES   c>  
 Buffer airfoil is not identical to current airfoil

 XFOIL   c>  
 Blunt trailing edge.  Gap =  0.00027

 Paneling parameters used...
   Number of panel nodes       160
   Panel bunching parameter    1.000
   TE/LE panel density ratio   0.150
   Refined-area/LE panel density ratio    0.200
   Top    side refined area x/c limits  1.000 1.000
   Bottom side refined area x/c limits  1.000 1.000

 XFOIL   c>  
.OPERi   c>   Current iteration limit:          20

Enter new iteration limit   i>  
Enter new iteration limit   i>  
Enter new iteration limit   i>  
.OPERi   c>  
 M  =    0.0000
 Re =  0.3000E+06

.OPERv   c>  
 Sonic Cp =    -66.86      Sonic Q/Qinf =     9.138


.OPERv   c>  
 Polar  1 newly created for accumulation
 Airfoil archived with polar: 000210                                          

Enter  polar save filename  OR  <return> for no file   s>  
 New polar save file available

Enter  polar dump filename  OR  <return> for no file   s>  
 Polar dump file will NOT be written

 Polar accumulation enabled

.OPERva   c>   Calculating unit vorticity distributions ...
 Calculating wake trajectory ...
 Calculating source influence matrix ...

 Solving BL system ...

 Initializing BL ...
    side            1  ...
 MRCHUE: Inverse mode at  57     Hk =   4.655
 MRCHUE: Inverse mode at  58     Hk =   5.508
 MRCHUE: Inverse mode at  59     Hk =   6.349
 MRCHUE: Inverse mode at  60     Hk =   7.184
 MRCHUE: Inverse mode at  61     Hk =   8.016
 MRCHUE: Inverse mode at  62     Hk =   7.414
 MRCHUE: Inverse mode at  63     Hk =   3.953
 MRCHUE: Inverse mode at  64     Hk =   2.500
 MRCHUE: Inverse mode at  84     Hk =   2.500
    side            2  ...
 MRCHUE: Inverse mode at  31     Hk =   4.212
 MRCHUE: Inverse mode at  32     Hk =   4.877
 MRCHUE: Inverse mode at  33     Hk =   5.558
 MRCHUE: Inverse mode at  34     Hk =   6.266
 MRCHUE: Inverse mode at  35     Hk =   7.011
 MRCHUE: Inverse mode at  36     Hk =   7.802
 MRCHUE: Inverse mode at  37     Hk =   8.652
 MRCHUE: Inverse mode at  38     Hk =   9.570
 MRCHUE: Inverse mode at  39     Hk =   6.532
 MRCHUE: Inverse mode at  40     Hk =   3.343
 MRCHUE: Inverse mode at  41     Hk =   2.500
 MRCHUE: Inverse mode at  42     Hk =   2.500
 MRCHUE: Inverse mode at  43     Hk =   2.500
 MRCHUE: Inverse mode at  44     Hk =   2.500
 MRCHUE: Inverse mode at  45     Hk =   2.500
 MRCHUE: Inverse mode at  46     Hk =   2.500
 MRCHUE: Inverse mode at  47     Hk =   2.500
 MRCHUE: Inverse mode at  48     Hk =   2.500
 MRCHUE: Inverse mode at  49     Hk =   2.500
 MRCHUE: Inverse mode at  50     Hk =   2.500
 MRCHUE: Inverse mode at  51     Hk =   2.500
 MRCHUE: Inverse mode at  52     Hk =   2.500
 MRCHUE: Inverse mode at  53     Hk =   2.500
 MRCHUE: Inverse mode at  54     Hk =   2.500

 Side 1  free  transition at x/c =  0.5229   62
 Side 2  free  transition at x/c =  0.2093   39

   1   rms: 0.4382E+00   max: -.1821E+01   D at   49  2   RLX: 0.275
       a =  2.000      CL =  1.4934
      Cm = -0.2879     CD =  0.01421   =>   CDf =  0.00721    CDp =  0.00700

 Side 1  free  transition at x/c =  0.5316   63
 Side 2  free  transition at x/c =  0.2057   39

   2   rms: 0.2789E+00   max: -.1225E+01   D at   52  2   RLX: 0.408
       a =  2.000      CL =  1.4502
      Cm = -0.2788     CD =  0.01420   =>   CDf =  0.00728    CDp =  0.00691

 MRCHDU: Convergence failed at  39  side 2    Res =  0.3893E+01
 MRCHDU: Convergence failed at  40  side 2    Res =  0.4471E+01
 MRCHDU: Convergence failed at  41  side 2    Res =  0.9938E+01
 MRCHDU: Convergence failed at  42  side 2    Res =  0.7441E+01
 MRCHDU: Convergence failed at  43  side 2    Res =  0.1451E+02
 MRCHDU: Convergence failed at  44  side 2    Res =  0.3429E+02
 MRCHDU: Convergence failed at  45  side 2    Res =  0.1524E+03
 MRCHDU: Convergence failed at  46  side 2    Res =  0.4005E+03
 MRCHDU: Convergence failed at  47  side 2    Res =  0.2818E+02
 MRCHDU: Convergence failed at  48  side 2    Res =  0.4333E+02
 MRCHDU: Convergence failed at  49  side 2    Res =  0.2157E+03
 MRCHDU: Convergence failed at  50  side 2    Res =  0.2140E+02
 MRCHDU: Convergence failed at  51  side 2    Res =  0.2421E+02
 MRCHDU: Convergence failed at  52  side 2    Res =  0.2706E+02
 MRCHDU: Convergence failed at  53  side 2    Res =  0.3006E+02
 MRCHDU: Convergence failed at  54  side 2    Res =  0.1860E+02
 MRCHDU: Convergence failed at  55  side 2    Res =  0.1863E+02
 MRCHDU: Convergence failed at  56  side 2    Res =  0.2234E+02
 MRCHDU: Convergence failed at  57  side 2    Res =  0.2175E+02
 MRCHDU: Convergence failed at  58  side 2    Res =  0.2096E+02
 MRCHDU: Convergence failed at  59  side 2    Res =  0.2027E+02
 MRCHDU: Convergence failed at  60  side 2    Res =  0.2758E+02
 MRCHDU: Convergence failed at  61  side 2    Res =  0.3193E+02
 MRCHDU: Convergence failed at  62  side 2    Res =  0.3002E+02
 MRCHDU: Convergence failed at  63  side 2    Res =  0.2805E+02
 MRCHDU: Convergence failed at  64  side 2    Res =  0.2207E+02
 MRCHDU: Convergence failed at  65  side 2    Res =  0.2066E+02
 MRCHDU: Convergence failed at  66  side 2    Res =  0.1919E+02
 MRCHDU: Convergence failed at  67  side 2    Res =  0.2473E+03
 MRCHDU: Convergence failed at  68  side 2    Res =  0.4315E+03
 MRCHDU: Convergence failed at  69  side 2    Res =  0.1155E+03
 MRCHDU: Convergence failed at  70  side 2    Res =  0.5499E+02
 MRCHDU: Convergence failed at  71  side 2    Res =  0.3697E+02
 MRCHDU: Convergence failed at  72  side 2    Res =  0.3401E+02
 MRCHDU: Convergence failed at  73  side 2    Res =  0.4881E+02
 MRCHDU: Convergence failed at  74  side 2    Res =  0.2266E+03
 MRCHDU: Convergence failed at  75  side 2    Res =  0.1641E+03
 MRCHDU: Convergence failed at  76  side 2    Res =  0.6160E+02
 MRCHDU: Convergence failed at  77  side 2    Res =  0.3363E+02
 MRCHDU: Convergence failed at  78  side 2    Res =  0.2386E+02
 Side 1  free  transition at x/c =  0.5417   63
 Side 2  free  transition at x/c =  0.2010   38

   3   rms: 0.1259E+01   max: 0.6807E+01   T at   38  2   RLX: 0.136
       a =  2.000      CL =  0.9760
      Cm = -0.1097     CD =  0.01313   =>   CDf =  0.00585    CDp =  0.00728

 MRCHDU: Convergence failed at  58  side 2    Res =  0.3870E+00
 MRCHDU: Convergence failed at  59  side 2    Res =  0.4236E+00
 MRCHDU: Convergence failed at  60  side 2    Res =  0.4571E+00
 MRCHDU: Convergence failed at  61  side 2    Res =  0.4906E+00
 MRCHDU: Convergence failed at  62  side 2    Res =  0.5238E+00
 MRCHDU: Convergence failed at  63  side 2    Res =  0.5566E+00
 MRCHDU: Convergence failed at  64  side 2    Res =  0.5888E+00
 MRCHDU: Convergence failed at  65  side 2    Res =  0.6207E+00
 MRCHDU: Convergence failed at  66  side 2    Res =  0.6520E+00
 MRCHDU: Convergence failed at  67  side 2    Res =  0.6816E+00
 MRCHDU: Convergence failed at  68  side 2    Res =  0.7107E+00
 MRCHDU: Convergence failed at  69  side 2    Res =  0.7393E+00
 MRCHDU: Convergence failed at  70  side 2    Res =  0.7686E+00
 MRCHDU: Convergence failed at  71  side 2    Res =  0.7968E+00
 MRCHDU: Convergence failed at  72  side 2    Res =  0.8259E+00
 MRCHDU: Convergence failed at  73  side 2    Res =  0.8550E+00
 MRCHDU: Convergence failed at  74  side 2    Res =  0.8846E+00
 MRCHDU: Convergence failed at  75  side 2    Res =  0.9149E+00
 MRCHDU: Convergence failed at  76  side 2    Res =  0.9452E+00
 MRCHDU: Convergence failed at  77  side 2    Res =  0.9762E+00
 MRCHDU: Convergence failed at  78  side 2    Res =  0.1017E+01
 Side 1  free  transition at x/c =  0.5453   63
 Side 2  free  transition at x/c =  0.1869   37

   4   rms: 0.1677E+01   max: -.1201E+02   T at   37  2   RLX: 0.042
       a =  2.000      CL =  1.1958
      Cm = -0.2073     CD =  0.03156   =>   CDf =  0.00605    CDp =  0.02550

 MRCHDU: Convergence failed at  39  side 2    Res =  0.6313E+01
 Side 1  free  transition at x/c =  0.5470   62
 Side 2  free  transition at x/c =  0.1970   39

   5   rms: 0.6221E+00   max: 0.3095E+01   C at   39  2   RLX: 0.258
       a =  2.000      CL =  1.0293
      Cm = -0.1946     CD =  0.02949   =>   CDf =  0.00605    CDp =  0.02344

 Side 1  free  transition at x/c =  0.5568   62
 Side 2  free  transition at x/c =  0.1838   39

   6   rms: 0.8899E+01   max: 0.5606E+02   T at   39  2   RLX: 0.024
       a =  2.000      CL =  1.1626
      Cm = -0.1957     CD =  0.04316   =>   CDf =  0.00538    CDp =  0.03779

 Side 1  free  transition at x/c =  0.5538   63
 Side 2  free  transition at x/c =  0.1732   37

   7   rms: 0.1684E+01   max: -.8180E+01   T at   37  2   RLX: 0.061
       a =  2.000      CL =  1.1397
      Cm = -0.2066     CD =  0.04061   =>   CDf =  0.00562    CDp =  0.03499

 Side 1  free  transition at x/c =  0.5567   63
 Side 2  free  transition at x/c =  0.1813   38

   8   rms: 0.1007E+01   max: -.3035E+01   D at   81  2   RLX: 0.165
       a =  2.000      CL =  1.0133
      Cm = -0.2070     CD =  0.02799   =>   CDf =  0.00564    CDp =  0.02235

 Side 1  free  transition at x/c =  0.5620   62
 Side 2  free  transition at x/c =  0.1782   39

   9   rms: 0.3608E+02   max: -.1365E+03   D at   39  2   RLX: 0.000
       a =  2.000      CL =  1.0265
      Cm = -0.2147     CD =  0.02967   =>   CDf =  0.00527    CDp =  0.02439

 Side 1  free  transition at x/c =  0.5622   62
 Side 2  free  transition at x/c =  0.1782   39

  10   rms: 0.3156E+02   max: 0.1721E+03   T at    2  1   RLX: 0.003
       a =  2.000      CL =  1.1168
      Cm = -0.2227     CD =  0.03260   =>   CDf =  0.00527    CDp =  0.02733

 Side 1  free  transition at x/c =  0.5607   62
 Side 2  free  transition at x/c =  0.1780   39

  11   rms: 0.1868E+01   max: -.5901E+01   D at   40  2   RLX: 0.085
       a =  2.000      CL =  0.9851
      Cm = -0.2138     CD =  0.02540   =>   CDf =  0.00547    CDp =  0.01993

 Side 1  free  transition at x/c =  0.5639   61
 Side 2  free  transition at x/c =  0.1805   40

  12   rms: 0.3606E+01   max: 0.1255E+02   D at   40  2   RLX: 0.064
       a =  2.000      CL =  1.2001
      Cm = -0.2349     CD =  0.03309   =>   CDf =  0.00507    CDp =  0.02802

 Side 1  free  transition at x/c =  0.5621   63
 Side 2  free  transition at x/c =  0.1808   38

  13   rms: 0.1584E+01   max: -.5031E+01   D at   39  2   RLX: 0.099
       a =  2.000      CL =  1.0897
      Cm = -0.2339     CD =  0.02434   =>   CDf =  0.00555    CDp =  0.01879

 Side 1  free  transition at x/c =  0.5652   62
 Side 2  free  transition at x/c =  0.1822   39

  14   rms: 0.6687E+01   max: 0.2124E+02   D at   43  2   RLX: 0.034
       a =  2.000      CL =  1.2772
      Cm = -0.2517     CD =  0.03182   =>   CDf =  0.00523    CDp =  0.02659

 Side 1  free  transition at x/c =  0.5634   63
 Side 2  free  transition at x/c =  0.1829   38

  15   rms: 0.1504E+01   max: -.4705E+01   D at   40  2   RLX: 0.106
       a =  2.000      CL =  1.1619
      Cm = -0.2485     CD =  0.02406   =>   CDf =  0.00561    CDp =  0.01845

 Side 1  free  transition at x/c =  0.5663   62
 Side 2  free  transition at x/c =  0.1839   39

  16   rms: 0.6381E+01   max: -.2029E+02   D at   80  2   RLX: 0.025
       a =  2.000      CL =  1.0788
      Cm = -0.2504     CD =  0.01860   =>   CDf =  0.00551    CDp =  0.01309

 Side 1  free  transition at x/c =  0.5672   61
 Side 2  free  transition at x/c =  0.1857   40

  17   rms: 0.6223E+02   max: 0.2445E+03   D at   60  2   RLX: 0.004
       a =  2.000      CL =  1.1353
      Cm = -0.2493     CD =  0.02507   =>   CDf =  0.00535    CDp =  0.01971

 Side 1  free  transition at x/c =  0.5668   62
 Side 2  free  transition at x/c =  0.1853   39

  18   rms: 0.8559E+01   max: -.2958E+02   D at   63  2   RLX: 0.017
       a =  2.000      CL =  1.0675
      Cm = -0.2492     CD =  0.01772   =>   CDf =  0.00553    CDp =  0.01219

 Side 1  free  transition at x/c =  0.5674   61
 Side 2  free  transition at x/c =  0.1861   40

  19   rms: 0.9328E+01   max: 0.3885E+02   D at   60  2   RLX: 0.039
       a =  2.000      CL =  1.2315
      Cm = -0.2560     CD =  0.02866   =>   CDf =  0.00529    CDp =  0.02337

 Side 1  free  transition at x/c =  0.5662   63
 Side 2  free  transition at x/c =  0.1857   38

  20   rms: 0.3614E+01   max: -.1233E+02   D at   43  2   RLX: 0.041
       a =  2.000      CL =  1.1713
      Cm = -0.2583     CD =  0.01916   =>   CDf =  0.00561    CDp =  0.01355

 Side 1  free  transition at x/c =  0.5673   62
 Side 2  free  transition at x/c =  0.1887   40

  21   rms: 0.1774E+01   max: -.7430E+01   D at   78  2   RLX: 0.067
       a =  2.000      CL =  1.1355
      Cm = -0.2559     CD =  0.01488   =>   CDf =  0.00571    CDp =  0.00917

 Side 1  free  transition at x/c =  0.5681   62
 Side 2  free  transition at x/c =  0.1885   40

  22   rms: 0.9749E+00   max: -.4499E+01   D at   80  2   RLX: 0.111
       a =  2.000      CL =  1.1301
      Cm = -0.2543     CD =  0.01323   =>   CDf =  0.00591    CDp =  0.00731

 Side 1  free  transition at x/c =  0.5688   62
 Side 2  free  transition at x/c =  0.1885   40

  23   rms: 0.6256E+00   max: -.2758E+01   D at   80  2   RLX: 0.181
       a =  2.000      CL =  1.1631
      Cm = -0.2555     CD =  0.01246   =>   CDf =  0.00610    CDp =  0.00636

 Side 1  free  transition at x/c =  0.5694   62
 Side 2  free  transition at x/c =  0.1902   40

  24   rms: 0.3389E+00   max: -.1531E+01   D at   80  2   RLX: 0.327
       a =  2.000      CL =  1.2306
      Cm = -0.2576     CD =  0.01314   =>   CDf =  0.00637    CDp =  0.00677

 Side 1  free  transition at x/c =  0.5697   62
 Side 2  free  transition at x/c =  0.1907   40

  25   rms: 0.2104E+00   max: -.7592E+00   D at   80  2   RLX: 0.659
       a =  2.000      CL =  1.3376
      Cm = -0.2619     CD =  0.01512   =>   CDf =  0.00648    CDp =  0.00864
 VISCAL:  Convergence failed
 Calculating wake trajectory ...
 Calculating source influence matrix ...

 Solving BL system ...

 Side 1  free  transition at x/c =  0.5692   63
 Side 2  free  transition at x/c =  0.1893   39

   1   rms: 0.1917E+00   max: -.5472E+00   T at   39  2   RLX: 0.914
       a =  3.000      CL =  1.4816
      Cm = -0.2616     CD =  0.01697   =>   CDf =  0.00652    CDp =  0.01044

 Side 1  free  transition at x/c =  0.5390   64
 Side 2  free  transition at x/c =  0.2001   37

   2   rms: 0.5569E-01   max: -.3424E+00   D at   55  2
       a =  3.000      CL =  1.4993
      Cm = -0.2617     CD =  0.01787   =>   CDf =  0.00702    CDp =  0.01086

 Side 1  free  transition at x/c =  0.5399   64
 Side 2  free  transition at x/c =  0.1999   37

   3   rms: 0.5522E-02   max: -.5213E-01   D at   55  2
       a =  3.000      CL =  1.4975
      Cm = -0.2613     CD =  0.01798   =>   CDf =  0.00698    CDp =  0.01099

 Side 1  free  transition at x/c =  0.5388   64
 Side 2  free  transition at x/c =  0.1994   37

   4   rms: 0.9778E-04   max: -.1518E-02   D at   55  2
       a =  3.000      CL =  1.4975
      Cm = -0.2613     CD =  0.01798   =>   CDf =  0.00700    CDp =  0.01098

 Point added to stored polar  1
 Point written to save file  000210M0.1.log                                  
 Dump file unspecified or not available
 Calculating wake trajectory ...
 Calculating source influence matrix ...

 Solving BL system ...

 Side 1  free  transition at x/c =  0.5388   64
 Side 2  free  transition at x/c =  0.1994   37

   1   rms: 0.1517E+00   max: -.9394E+00   T at   37  2   RLX: 0.532
       a =  4.000      CL =  1.5558
      Cm = -0.2607     CD =  0.01821   =>   CDf =  0.00678    CDp =  0.01143

 Side 1  free  transition at x/c =  0.5231   64
 Side 2  free  transition at x/c =  0.2108   37

   2   rms: 0.8943E-01   max: 0.7518E+00   D at   37  2
       a =  4.000      CL =  1.6001
      Cm = -0.2588     CD =  0.01860   =>   CDf =  0.00727    CDp =  0.01132

 Side 1  free  transition at x/c =  0.5069   64
 Side 2  free  transition at x/c =  0.2155   37

   3   rms: 0.1155E-01   max: -.9178E-01   T at   64  1
       a =  4.000      CL =  1.6013
      Cm = -0.2590     CD =  0.01866   =>   CDf =  0.00728    CDp =  0.01139

 Side 1  free  transition at x/c =  0.5093   64
 Side 2  free  transition at x/c =  0.2157   37

   4   rms: 0.1171E-02   max: -.1295E-01   D at   65  1
       a =  4.000      CL =  1.6023
      Cm = -0.2592     CD =  0.01869   =>   CDf =  0.00717    CDp =  0.01152

 Side 1  free  transition at x/c =  0.5090   64
 Side 2  free  transition at x/c =  0.2158   37

   5   rms: 0.1278E-04   max: -.1773E-03   D at   65  1
       a =  4.000      CL =  1.6023
      Cm = -0.2592     CD =  0.01869   =>   CDf =  0.00718    CDp =  0.01151

 Point added to stored polar  1
 Point written to save file  000210M0.1.log                                  
 Dump file unspecified or not available
 Calculating wake trajectory ...
 Calculating source influence matrix ...

 Solving BL system ...

 Side 1  free  transition at x/c =  0.5090   64
 Side 2  free  transition at x/c =  0.2158   37

   1   rms: 0.1475E+00   max: -.8805E+00   T at   37  2   RLX: 0.568
       a =  5.000      CL =  1.6626
      Cm = -0.2581     CD =  0.01937   =>   CDf =  0.00694    CDp =  0.01243

 Side 1  free  transition at x/c =  0.4934   64
 Side 2  free  transition at x/c =  0.2276   37

   2   rms: 0.7235E-01   max: 0.5398E+00   D at   37  2
       a =  5.000      CL =  1.6966
      Cm = -0.2553     CD =  0.01945   =>   CDf =  0.00703    CDp =  0.01242

 Side 1  free  transition at x/c =  0.4797   64
 Side 2  free  transition at x/c =  0.2331   36

   3   rms: 0.1158E-01   max: -.9670E-01   D at   64  1
       a =  5.000      CL =  1.6959
      Cm = -0.2553     CD =  0.01975   =>   CDf =  0.00726    CDp =  0.01249

 Side 1  free  transition at x/c =  0.4789   64
 Side 2  free  transition at x/c =  0.2334   36

   4   rms: 0.1044E-02   max: -.5538E-02   D at   81  2
       a =  5.000      CL =  1.6966
      Cm = -0.2554     CD =  0.01976   =>   CDf =  0.00722    CDp =  0.01254

 Side 1  free  transition at x/c =  0.4787   64
 Side 2  free  transition at x/c =  0.2334   36

   5   rms: 0.5589E-05   max: 0.3175E-04   T at   36  2
       a =  5.000      CL =  1.6966
      Cm = -0.2554     CD =  0.01976   =>   CDf =  0.00722    CDp =  0.01254

 Point added to stored polar  1
 Point written to save file  000210M0.1.log                                  
 Dump file unspecified or not available
 Calculating wake trajectory ...
 Calculating source influence matrix ...

 Solving BL system ...

 Side 1  free  transition at x/c =  0.4787   64
 Side 2  free  transition at x/c =  0.2334   36

   1   rms: 0.1329E+00   max: -.7724E+00   T at   36  2   RLX: 0.647
       a =  6.000      CL =  1.7516
      Cm = -0.2520     CD =  0.02056   =>   CDf =  0.00724    CDp =  0.01332

 Side 1  free  transition at x/c =  0.4577   63
 Side 2  free  transition at x/c =  0.2469   37

   2   rms: 0.5000E-01   max: 0.3916E+00   D at   37  2
       a =  6.000      CL =  1.7671
      Cm = -0.2477     CD =  0.02127   =>   CDf =  0.00713    CDp =  0.01414

 Side 1  free  transition at x/c =  0.4474   64
 Side 2  free  transition at x/c =  0.2511   36

   3   rms: 0.8145E-02   max: -.4317E-01   D at   64  1
       a =  6.000      CL =  1.7705
      Cm = -0.2483     CD =  0.02136   =>   CDf =  0.00731    CDp =  0.01404

 Side 1  free  transition at x/c =  0.4483   64
 Side 2  free  transition at x/c =  0.2516   36

   4   rms: 0.5588E-03   max: -.2917E-02   D at   88  1
       a =  6.000      CL =  1.7709
      Cm = -0.2484     CD =  0.02136   =>   CDf =  0.00729    CDp =  0.01407

 Side 1  free  transition at x/c =  0.4482   64
 Side 2  free  transition at x/c =  0.2516   36

   5   rms: 0.6449E-05   max: -.3008E-04   D at   76  2
       a =  6.000      CL =  1.7709
      Cm = -0.2484     CD =  0.02136   =>   CDf =  0.00729    CDp =  0.01407

 Point added to stored polar  1
 Point written to save file  000210M0.1.log                                  
 Dump file unspecified or not available
 Calculating wake trajectory ...
 Calculating source influence matrix ...

 Solving BL system ...

 Side 1  free  transition at x/c =  0.4482   64
 Side 2  free  transition at x/c =  0.2516   36

   1   rms: 0.1303E+00   max: -.6874E+00   T at   36  2   RLX: 0.727
       a =  7.000      CL =  1.8213
      Cm = -0.2429     CD =  0.02302   =>   CDf =  0.00731    CDp =  0.01571

 Side 1  free  transition at x/c =  0.4285   63
 Side 2  free  transition at x/c =  0.2659   37

   2   rms: 0.4436E-01   max: -.4075E+00   D at   63  1
       a =  7.000      CL =  1.8324
      Cm = -0.2401     CD =  0.02350   =>   CDf =  0.00706    CDp =  0.01644

 Side 1  free  transition at x/c =  0.4208   63
 Side 2  free  transition at x/c =  0.2706   36

   3   rms: 0.1398E-01   max: -.6907E-01   D at   87  1
       a =  7.000      CL =  1.8381
      Cm = -0.2411     CD =  0.02375   =>   CDf =  0.00732    CDp =  0.01643

 Side 1  free  transition at x/c =  0.4183   63
 Side 2  free  transition at x/c =  0.2714   36

   4   rms: 0.8698E-03   max: -.5327E-02   D at   87  1
       a =  7.000      CL =  1.8386
      Cm = -0.2412     CD =  0.02375   =>   CDf =  0.00732    CDp =  0.01644

 Side 1  free  transition at x/c =  0.4184   63
 Side 2  free  transition at x/c =  0.2714   36

   5   rms: 0.1403E-04   max: 0.9969E-04   D at   37  2
       a =  7.000      CL =  1.8386
      Cm = -0.2412     CD =  0.02375   =>   CDf =  0.00732    CDp =  0.01644

 Point added to stored polar  1
 Point written to save file  000210M0.1.log                                  
 Dump file unspecified or not available
 Calculating wake trajectory ...
 Calculating source influence matrix ...

 Solving BL system ...

 Side 1  free  transition at x/c =  0.4184   63
 Side 2  free  transition at x/c =  0.2714   36

   1   rms: 0.1244E+00   max: -.6737E+00   T at   36  2   RLX: 0.742
       a =  8.000      CL =  1.8841
      Cm = -0.2355     CD =  0.02581   =>   CDf =  0.00704    CDp =  0.01877

 Side 1  free  transition at x/c =  0.3945   63
 Side 2  free  transition at x/c =  0.2859   36

   2   rms: 0.7505E-01   max: -.4467E+00   T at   36  2
       a =  8.000      CL =  1.8948
      Cm = -0.2335     CD =  0.02697   =>   CDf =  0.00744    CDp =  0.01953

 Side 1  free  transition at x/c =  0.3884   63
 Side 2  free  transition at x/c =  0.2948   36

   3   rms: 0.2003E-01   max: -.1409E+00   D at   38  2
       a =  8.000      CL =  1.8959
      Cm = -0.2334     CD =  0.02707   =>   CDf =  0.00729    CDp =  0.01978

 Side 1  free  transition at x/c =  0.3884   63
 Side 2  free  transition at x/c =  0.2927   36

   4   rms: 0.9253E-03   max: -.9328E-02   D at   38  2
       a =  8.000      CL =  1.8959
      Cm = -0.2334     CD =  0.02708   =>   CDf =  0.00732    CDp =  0.01977

 Side 1  free  transition at x/c =  0.3884   63
 Side 2  free  transition at x/c =  0.2927   36

   5   rms: 0.2909E-05   max: -.3731E-04   D at   38  2
       a =  8.000      CL =  1.8959
      Cm = -0.2334     CD =  0.02709   =>   CDf =  0.00732    CDp =  0.01977

 Point added to stored polar  1
 Point written to save file  000210M0.1.log                                  
 Dump file unspecified or not available
 Calculating wake trajectory ...
 Calculating source influence matrix ...

 Solving BL system ...

 Side 1  free  transition at x/c =  0.3884   63
 Side 2  free  transition at x/c =  0.2927   36

   1   rms: 0.1285E+00   max: -.6696E+00   T at   36  2   RLX: 0.747
       a =  9.000      CL =  1.9319
      Cm = -0.2271     CD =  0.03026   =>   CDf =  0.00703    CDp =  0.02322

 Side 1  free  transition at x/c =  0.3691   63
 Side 2  free  transition at x/c =  0.3079   36

   2   rms: 0.8314E-01   max: -.4926E+00   T at   36  2
       a =  9.000      CL =  1.9413
      Cm = -0.2254     CD =  0.03134   =>   CDf =  0.00733    CDp =  0.02400

 Side 1  free  transition at x/c =  0.3620   62
 Side 2  free  transition at x/c =  0.3179   36

   3   rms: 0.2677E-01   max: -.1820E+00   D at   36  2
       a =  9.000      CL =  1.9453
      Cm = -0.2256     CD =  0.03143   =>   CDf =  0.00728    CDp =  0.02415

 Side 1  free  transition at x/c =  0.3600   62
 Side 2  free  transition at x/c =  0.3160   36

   4   rms: 0.7978E-03   max: -.9600E-02   D at   38  2
       a =  9.000      CL =  1.9456
      Cm = -0.2257     CD =  0.03145   =>   CDf =  0.00730    CDp =  0.02415

 Side 1  free  transition at x/c =  0.3600   62
 Side 2  free  transition at x/c =  0.3160   36

   5   rms: 0.1437E-04   max: -.8358E-04   D at   80  2
       a =  9.000      CL =  1.9456
      Cm = -0.2257     CD =  0.03145   =>   CDf =  0.00730    CDp =  0.02415

 Point added to stored polar  1
 Point written to save file  000210M0.1.log                                  
 Dump file unspecified or not available
 Calculating wake trajectory ...
 Calculating source influence matrix ...

 Solving BL system ...

 Side 1  free  transition at x/c =  0.3600   62
 Side 2  free  transition at x/c =  0.3160   36

   1   rms: 0.1239E+00   max: -.7077E+00   T at   36  2   RLX: 0.707
       a = 10.000      CL =  1.9828
      Cm = -0.2210     CD =  0.03466   =>   CDf =  0.00700    CDp =  0.02766

 Side 1  free  transition at x/c =  0.3388   62
 Side 2  free  transition at x/c =  0.3341   36

   2   rms: 0.3804E-01   max: -.2202E+00   D at   62  1
       a = 10.000      CL =  1.9861
      Cm = -0.2181     CD =  0.03700   =>   CDf =  0.00738    CDp =  0.02962

 Side 1  free  transition at x/c =  0.3322   62
 Side 2  free  transition at x/c =  0.3404   36

   3   rms: 0.1020E-01   max: -.9237E-01   D at   36  2
       a = 10.000      CL =  1.9863
      Cm = -0.2181     CD =  0.03700   =>   CDf =  0.00722    CDp =  0.02978

 Side 1  free  transition at x/c =  0.3323   62
 Side 2  free  transition at x/c =  0.3415   36

   4   rms: 0.2405E-03   max: 0.2680E-02   D at   37  2
       a = 10.000      CL =  1.9864
      Cm = -0.2181     CD =  0.03700   =>   CDf =  0.00721    CDp =  0.02979

 Side 1  free  transition at x/c =  0.3323   62
 Side 2  free  transition at x/c =  0.3414   36

   5   rms: 0.3369E-05   max: -.1903E-04   D at   81  2
       a = 10.000      CL =  1.9864
      Cm = -0.2181     CD =  0.03700   =>   CDf =  0.00721    CDp =  0.02979

 Point added to stored polar  1
 Point written to save file  000210M0.1.log                                  
 Dump file unspecified or not available
 Calculating wake trajectory ...
 Calculating source influence matrix ...

 Solving BL system ...

 Side 1  free  transition at x/c =  0.3323   62
 Side 2  free  transition at x/c =  0.3414   36

   1   rms: 0.1254E+00   max: -.6754E+00   T at   36  2   RLX: 0.740
       a = 11.000      CL =  2.0124
      Cm = -0.2125     CD =  0.04179   =>   CDf =  0.00723    CDp =  0.03455

 Side 1  free  transition at x/c =  0.3149   61
 Side 2  free  transition at x/c =  0.3649   37

   2   rms: 0.4313E-01   max: 0.3959E+00   D at   37  2
       a = 11.000      CL =  2.0165
      Cm = -0.2108     CD =  0.04388   =>   CDf =  0.00684    CDp =  0.03704

 Side 1  free  transition at x/c =  0.3074   61
 Side 2  free  transition at x/c =  0.3690   36

   3   rms: 0.6487E-02   max: -.5364E-01   D at   84  1
       a = 11.000      CL =  2.0177
      Cm = -0.2107     CD =  0.04382   =>   CDf =  0.00722    CDp =  0.03660

 Side 1  free  transition at x/c =  0.3069   61
 Side 2  free  transition at x/c =  0.3695   36

   4   rms: 0.4413E-03   max: 0.2483E-02   D at   37  2
       a = 11.000      CL =  2.0181
      Cm = -0.2107     CD =  0.04383   =>   CDf =  0.00722    CDp =  0.03661

 Side 1  free  transition at x/c =  0.3069   61
 Side 2  free  transition at x/c =  0.3695   36

   5   rms: 0.8830E-05   max: 0.5930E-04   D at   37  2
       a = 11.000      CL =  2.0181
      Cm = -0.2107     CD =  0.04383   =>   CDf =  0.00722    CDp =  0.03661

 Point added to stored polar  1
 Point written to save file  000210M0.1.log                                  
 Dump file unspecified or not available
 Calculating wake trajectory ...
 Calculating source influence matrix ...

 Solving BL system ...

 Side 1  free  transition at x/c =  0.3069   61
 Side 2  free  transition at x/c =  0.3695   36

   1   rms: 0.1266E+00   max: -.8647E+00   T at   36  2   RLX: 0.578
       a = 12.000      CL =  2.0395
      Cm = -0.2074     CD =  0.04804   =>   CDf =  0.00724    CDp =  0.04080

 MRCHDU: Convergence failed at  38  side 2    Res =  0.2911E+01
 MRCHDU: Convergence failed at  39  side 2    Res =  0.4943E+01
 MRCHDU: Convergence failed at  40  side 2    Res =  0.1492E+02
 MRCHDU: Convergence failed at  41  side 2    Res =  0.6962E+02
 MRCHDU: Convergence failed at  42  side 2    Res =  0.1527E+03
 MRCHDU: Convergence failed at  43  side 2    Res =  0.6758E+02
 MRCHDU: Convergence failed at  44  side 2    Res =  0.5635E+02
 MRCHDU: Convergence failed at  45  side 2    Res =  0.6069E+02
 MRCHDU: Convergence failed at  46  side 2    Res =  0.7473E+02
 MRCHDU: Convergence failed at  47  side 2    Res =  0.1142E+03
 MRCHDU: Convergence failed at  48  side 2    Res =  0.5259E+03
 MRCHDU: Convergence failed at  49  side 2    Res =  0.1345E+03
 MRCHDU: Convergence failed at  50  side 2    Res =  0.4308E+02
 MRCHDU: Convergence failed at  51  side 2    Res =  0.2098E+02
 MRCHDU: Convergence failed at  52  side 2    Res =  0.1161E+02
 MRCHDU: Convergence failed at  53  side 2    Res =  0.6217E+01
 MRCHDU: Convergence failed at  54  side 2    Res =  0.3915E+01
 Side 1  free  transition at x/c =  0.2909   61
 Side 2  free  transition at x/c =  0.3939   38

   2   rms: 0.2024E+00   max: -.1061E+01   D at   53  2   RLX: 0.471
       a = 12.000      CL =  2.0313
      Cm = -0.2019     CD =  0.04945   =>   CDf =  0.00651    CDp =  0.04294

 Side 1  free  transition at x/c =  0.2877   60
 Side 2  free  transition at x/c =  0.4002   38

   3   rms: 0.5072E-01   max: -.5313E+00   D at   39  2   RLX: 0.941
       a = 12.000      CL =  2.0458
      Cm = -0.2045     CD =  0.05175   =>   CDf =  0.00690    CDp =  0.04485

 Side 1  free  transition at x/c =  0.2833   61
 Side 2  free  transition at x/c =  0.4023   37

   4   rms: 0.5315E-02   max: 0.9639E-01   D at   39  2
       a = 12.000      CL =  2.0468
      Cm = -0.2046     CD =  0.05174   =>   CDf =  0.00699    CDp =  0.04475

 Side 1  free  transition at x/c =  0.2830   61
 Side 2  free  transition at x/c =  0.4023   37

   5   rms: 0.4803E-03   max: -.5174E-02   D at    4  1
       a = 12.000      CL =  2.0468
      Cm = -0.2046     CD =  0.05174   =>   CDf =  0.00698    CDp =  0.04476

 Side 1  free  transition at x/c =  0.2830   61
 Side 2  free  transition at x/c =  0.4022   37

   6   rms: 0.4337E-05   max: -.3071E-04   D at   82  2
       a = 12.000      CL =  2.0468
      Cm = -0.2046     CD =  0.05174   =>   CDf =  0.00698    CDp =  0.04476

 Point added to stored polar  1
 Point written to save file  000210M0.1.log                                  
 Dump file unspecified or not available
 Calculating wake trajectory ...
 Calculating source influence matrix ...

 Solving BL system ...

 Side 1  free  transition at x/c =  0.2830   61
 Side 2  free  transition at x/c =  0.4022   37

   1   rms: 0.1223E+00   max: -.7714E+00   T at   37  2   RLX: 0.606
       a = 13.000      CL =  2.0627
      Cm = -0.2013     CD =  0.05727   =>   CDf =  0.00700    CDp =  0.05027

 Side 1  free  transition at x/c =  0.2693   60
 Side 2  free  transition at x/c =  0.4244   38

   2   rms: 0.4918E-01   max: -.3138E+00   T at   38  2
       a = 13.000      CL =  2.0677
      Cm = -0.1993     CD =  0.06143   =>   CDf =  0.00701    CDp =  0.05442

 Side 1  free  transition at x/c =  0.2604   60
 Side 2  free  transition at x/c =  0.4405   39

   3   rms: 0.8419E-02   max: -.8516E-01   D at   38  2
       a = 13.000      CL =  2.0679
      Cm = -0.1991     CD =  0.06095   =>   CDf =  0.00685    CDp =  0.05410

 Side 1  free  transition at x/c =  0.2611   60
 Side 2  free  transition at x/c =  0.4427   39

   4   rms: 0.8455E-03   max: -.4721E-02   D at   39  2
       a = 13.000      CL =  2.0685
      Cm = -0.1991     CD =  0.06094   =>   CDf =  0.00682    CDp =  0.05412

 Side 1  free  transition at x/c =  0.2610   60
 Side 2  free  transition at x/c =  0.4429   39

   5   rms: 0.2565E-04   max: -.2029E-03   D at   80  2
       a = 13.000      CL =  2.0685
      Cm = -0.1991     CD =  0.06094   =>   CDf =  0.00682    CDp =  0.05412

 Point added to stored polar  1
 Point written to save file  000210M0.1.log                                  
 Dump file unspecified or not available
 Calculating wake trajectory ...
 Calculating source influence matrix ...

 Solving BL system ...

 Side 1  free  transition at x/c =  0.2610   60
 Side 2  free  transition at x/c =  0.4429   39

   1   rms: 0.1252E+00   max: -.8228E+00   T at   39  2   RLX: 0.538
       a = 14.000      CL =  2.0785
      Cm = -0.1965     CD =  0.06664   =>   CDf =  0.00650    CDp =  0.06015

 Side 1  free  transition at x/c =  0.2511   60
 Side 2  free  transition at x/c =  0.4686   39

   2   rms: 0.5946E-01   max: -.3627E+00   T at   39  2
       a = 14.000      CL =  2.0858
      Cm = -0.1948     CD =  0.07174   =>   CDf =  0.00679    CDp =  0.06495

 Side 1  free  transition at x/c =  0.2399   60
 Side 2  free  transition at x/c =  0.4992   41

   3   rms: 0.1530E-01   max: -.17Got result {'DD': 0.01748, 'Dmin': 0.01798, 'LL': -1.382}
Completed successfully in 2.44 seconds. [{'DD': 0.01748, 'Dmin': 0.01798, 'LL': -1.382}]
18E+00   D at   40  2
       a = 14.000      CL =  2.0817
      Cm = -0.1943     CD =  0.07147   =>   CDf =  0.00675    CDp =  0.06472

 Side 1  free  transition at x/c =  0.2412   60
 Side 2  free  transition at x/c =  0.5028   41

   4   rms: 0.2294E-02   max: -.1250E-01   D at   80  1
       a = 14.000      CL =  2.0834
      Cm = -0.1943     CD =  0.07129   =>   CDf =  0.00664    CDp =  0.06464

 Side 1  free  transition at x/c =  0.2410   60
 Side 2  free  transition at x/c =  0.5029   41

   5   rms: 0.1338E-03   max: -.8785E-03   D at   80  2
       a = 14.000      CL =  2.0835
      Cm = -0.1943     CD =  0.07130   =>   CDf =  0.00665    CDp =  0.06465

 Side 1  free  transition at x/c =  0.2410   60
 Side 2  free  transition at x/c =  0.5029   41

   6   rms: 0.5982E-05   max: -.4205E-04   D at   82  2
       a = 14.000      CL =  2.0835
      Cm = -0.1943     CD =  0.07130   =>   CDf =  0.00666    CDp =  0.06465

 Point added to stored polar  1
 Point written to save file  000210M0.1.log                                  
 Dump file unspecified or not available
 Calculating wake trajectory ...
 Calculating source influence matrix ...

 Solving BL system ...

 Side 1  free  transition at x/c =  0.2410   60
 Side 2  free  transition at x/c =  0.5029   41

   1   rms: 0.1414E+00   max: -.1192E+01   C at   41  2   RLX: 0.420
       a = 15.000      CL =  2.0915
      Cm = -0.1923     CD =  0.07565   =>   CDf =  0.00632    CDp =  0.06934

 Side 1  free  transition at x/c =  0.2342   60
 Side 2  free  transition at x/c =  0.5382   42

   2   rms: 0.1271E+00   max: -.1633E+01   C at   42  2   RLX: 0.306
       a = 15.000      CL =  2.0925
      Cm = -0.1918     CD =  0.07786   =>   CDf =  0.00658    CDp =  0.07127

 Side 1  free  transition at x/c =  0.2305   60
 Side 2  free  transition at x/c =  0.5553   43

   3   rms: 0.1301E+00   max: -.1790E+01   C at   43  2   RLX: 0.279
       a = 15.000      CL =  2.0945
      Cm = -0.1917     CD =  0.07904   =>   CDf =  0.00649    CDp =  0.07256

 Side 1  free  transition at x/c =  0.2282   60
 Side 2  free  transition at x/c =  0.5734   44

   4   rms: 0.1496E+00   max: -.2315E+01   C at   44  2   RLX: 0.216
       a = 15.000      CL =  2.0962
      Cm = -0.1918     CD =  0.07964   =>   CDf =  0.00645    CDp =  0.07319

 Side 1  free  transition at x/c =  0.2270   60
 Side 2  free  transition at x/c =  0.5908   44

   5   rms: 0.6169E-01   max: -.6184E+00   T at   44  2   RLX: 0.808
       a = 15.000      CL =  2.0981
      Cm = -0.1911     CD =  0.08195   =>   CDf =  0.00644    CDp =  0.07552

 Side 1  free  transition at x/c =  0.2238   60
 Side 2 forced transition at x/c =  1.0001   65

   6   rms: 0.2779E-01   max: 0.4927E+00   D at   44  2
       a = 15.000      CL =  2.0964
      Cm = -0.1901     CD =  0.08174   =>   CDf =  0.00624    CDp =  0.07550

 Side 1  free  transition at x/c =  0.2229   59
 Side 2 forced transition at x/c =  1.0001   65

   7   rms: 0.3540E-02   max: 0.4118E-01   D at   45  2
       a = 15.000      CL =  2.0962
      Cm = -0.1902     CD =  0.08178   =>   CDf =  0.00626    CDp =  0.07551

 Side 1  free  transition at x/c =  0.2228   59
 Side 2 forced transition at x/c =  1.0001   65

   8   rms: 0.9757E-04   max: 0.7104E-03   D at   41  2
       a = 15.000      CL =  2.0962
      Cm = -0.1902     CD =  0.08177   =>   CDf =  0.00626    CDp =  0.07551

 Point added to stored polar  1
 Point written to save file  000210M0.1.log                                  
 Dump file unspecified or not available

.OPERva   c>  
 XFOIL   c>  
