Job launching after 0.47 seconds in submission.
Running python job.
Changed into dir /home/simonx/Documents/Udacity/Projects/capstone/PESM_NSGA2_CST_XFoil
Importing evaluationFunctionXFoil.py
Running evaluationFunctionXFoil.main()
0
1
2
0.04
resp: 
 ===================================================
  XFOIL Version 6.97
  Copyright (C) 2000   Mark Drela, Harold Youngren

  This software comes with ABSOLUTELY NO WARRANTY,
    subject to the GNU General Public License.

  Caveat computor
 ===================================================

 File  xfoil.def  not found

   QUIT    Exit program

  .OPER    Direct operating point(s)
  .MDES    Complex mapping design routine
  .QDES    Surface speed design routine
  .GDES    Geometry design routine

   SAVE f  Write airfoil to labeled coordinate file
   PSAV f  Write airfoil to plain coordinate file
   ISAV f  Write airfoil to ISES coordinate file
   MSAV f  Write airfoil to MSES coordinate file
   REVE    Reverse written-airfoil node ordering
   DELI i  Change written-airfoil file delimiters

   LOAD f  Read buffer airfoil from coordinate file
   NACA i  Set NACA 4,5-digit airfoil and buffer airfoil
   INTE    Set buffer airfoil by interpolating two airfoils
   NORM    Buffer airfoil normalization toggle
   HALF    Halve the number of points in buffer airfoil
   XYCM rr Change CM reference location, currently  0.25000 0.00000

   BEND    Display structural properties of current airfoil

   PCOP    Set current-airfoil panel nodes directly from buffer airfoil points
   PANE    Set current-airfoil panel nodes ( 160 ) based on curvature
  .PPAR    Show/change paneling

  .PLOP    Plotting options

   WDEF f  Write  current-settings file
   RDEF f  Reread current-settings file
   NAME s  Specify new airfoil name
   NINC    Increment name version number

   Z       Zoom    | (available in all menus)
   U       Unzoom  | 

 XFOIL   c>   ...............................................

  G raphics-enable flag:        T
  S ize of plot object          10.00"
  A spect ratio of plot object   0.5500
  P age dimensions              11.00 x  8.50"
  M argins from page edges       0.00",  0.00"
  F ont size (relative)          0.0150
  W indow/screen size fraction   0.8000
  B lowup input method:        Cursor    
  O rientation of plot:        Landscape 
  C olor PostScript output?     F

      Option, Value   (or <Return>)    c>   ...............................................

  G raphics-enable flag:        F
  S ize of plot object          10.00"
  A spect ratio of plot object   0.5500
  P age dimensions              11.00 x  8.50"
  M argins from page edges       0.00",  0.00"
  F ont size (relative)          0.0150
  W indow/screen size fraction   0.8000
  B lowup input method:        Cursor    
  O rientation of plot:        Landscape 
  C olor PostScript output?     F

      Option, Value   (or <Return>)    c>  
 XFOIL   c>  
 Labeled airfoil file.  Name:  000225                                          

 Number of input coordinate points: 200
 Clockwise ordering
 Max thickness =     0.144494  at x =   0.147
 Max camber    =     0.139909  at x =   0.438

  LE  x,y  =  -0.00007   0.00219  |   Chord =   0.99995
  TE  x,y  =   0.99988   0.00006  |

 Current airfoil nodes set from buffer airfoil nodes ( 200 )

 XFOIL   c>  
 You are working with the buffer airfoil

.GDES   c>  
  i       x        y      angle
   2   0.9990   0.0005    0.001
   3   0.9978   0.0011    0.053
   4   0.9961   0.0020    0.020
   5   0.9938   0.0030    0.064
   6   0.9911   0.0044    0.066
   7   0.9880   0.0059    0.075
   8   0.9843   0.0077    0.085
   9   0.9801   0.0098    0.114
  10   0.9755   0.0120    0.107
  11   0.9704   0.0145    0.119
  12   0.9649   0.0171    0.137
  13   0.9589   0.0200    0.145
  14   0.9524   0.0231    0.167
  15   0.9455   0.0263    0.165
  16   0.9382   0.0298    0.188
  17   0.9304   0.0334    0.190
  18   0.9222   0.0371    0.213
  19   0.9135   0.0411    0.214
  20   0.9045   0.0451    0.234
  21   0.8951   0.0493    0.250
  22   0.8853   0.0537    0.252
  23   0.8751   0.0581    0.281
  24   0.8645   0.0627    0.280
  25   0.8536   0.0673    0.300
  26   0.8423   0.0720    0.314
  27   0.8307   0.0768    0.329
  28   0.8187   0.0816    0.338
  29   0.8065   0.0865    0.361
  30   0.7939   0.0914    0.373
  31   0.7810   0.0963    0.387
  32   0.7679   0.1012    0.401
  33   0.7545   0.1061    0.421
  34   0.7409   0.1110    0.434
  35   0.7270   0.1159    0.454
  36   0.7129   0.1207    0.475
  37   0.6986   0.1255    0.485
  38   0.6841   0.1301    0.504
  39   0.6694   0.1347    0.527
  40   0.6545   0.1392    0.542
  41   0.6395   0.1436    0.568
  42   0.6243   0.1479    0.580
  43   0.6091   0.1521    0.607
  44   0.5937   0.1560    0.627
  45   0.5782   0.1599    0.647
  46   0.5627   0.1636    0.672
  47   0.5471   0.1671    0.693
  48   0.5314   0.1704    0.717
  49   0.5157   0.1735    0.746
  50   0.5000   0.1764    0.764
  51   0.4843   0.1790    0.798
  52   0.4686   0.1815    0.820
  53   0.4529   0.1837    0.849
  54   0.4373   0.1857    0.879
  55   0.4218   0.1874    0.907
  56   0.4063   0.1889    0.940
  57   0.3909   0.1901    0.969
  58   0.3757   0.1911    1.009
  59   0.3605   0.1917    1.033
  60   0.3455   0.1921    1.076
  61   0.3306   0.1922    1.110
  62   0.3159   0.1921    1.149
  63   0.3014   0.1916    1.188
  64   0.2871   0.1908    1.226
  65   0.2730   0.1898    1.268
  66   0.2591   0.1884    1.320
  67   0.2455   0.1868    1.359
  68   0.2321   0.1849    1.409
  69   0.2190   0.1826    1.459
  70   0.2061   0.1801    1.511
  71   0.1935   0.1773    1.569
  72   0.1813   0.1742    1.617
  73   0.1693   0.1709    1.680
  74   0.1577   0.1672    1.742
  75   0.1464   0.1633    1.803
  76   0.1355   0.1591    1.869
  77   0.1249   0.1546    1.943
  78   0.1147   0.1499    2.017
  79   0.1049   0.1449    2.083
  80   0.0955   0.1397    2.168
  81   0.0865   0.1343    2.240
  82   0.0778   0.1286    2.333
  83   0.0696   0.1227    2.416
  84   0.0618   0.1166    2.497
  85   0.0545   0.1104    2.591
  86   0.0476   0.1039    2.695
  87   0.0411   0.0972    2.769
  88   0.0351   0.0904    2.873
  89   0.0296   0.0834    2.961
  90   0.0245   0.0763    3.052
  91   0.0199   0.0691    3.144
  92   0.0157   0.0617    3.232
  93   0.0120   0.0542    3.294
  94   0.0089   0.0466    3.385
  95   0.0062   0.0390    3.441
  96   0.0039   0.0313    3.491
  97   0.0022   0.0235    3.547
  98   0.0010   0.0157    3.570
  99   0.0002   0.0079    3.592
 100   0.0000   0.0000   10.599
 101   0.0002  -0.0016   16.524
 102   0.0010  -0.0032   14.058
 103   0.0022  -0.0047   11.403
 104   0.0039  -0.0061    9.096
 105   0.0062  -0.0074    7.376
 106   0.0089  -0.0085    6.077
 107   0.0120  -0.0094    5.092
 108   0.0157  -0.0102    4.345
 109   0.0199  -0.0107    3.763
 110   0.0245  -0.0110    3.278
 111   0.0296  -0.0110    2.873
 112   0.0351  -0.0108    2.537
 113   0.0411  -0.0102    2.239
 114   0.0476  -0.0094    1.982
 115   0.0545  -0.0082    1.750
 116   0.0618  -0.0068    1.540
 117   0.0696  -0.0050    1.348
 118   0.0778  -0.0029    1.165
 119   0.0865  -0.0006    1.010
 120   0.0955   0.0020    0.853
 121   0.1049   0.0049    0.710
 122   0.1147   0.0081    0.573
 123   0.1249   0.0115    0.451
 124   0.1355   0.0151    0.330
 125   0.1464   0.0189    0.213
 126   0.1577   0.0229    0.109
 127   0.1693   0.0270    0.007
 128   0.1813   0.0312   -0.096
 129   0.1935   0.0355   -0.190
 130   0.2061   0.0399   -0.275
 131   0.2190   0.0443   -0.361
 132   0.2321   0.0487   -0.437
 133   0.2455   0.0531   -0.519
 134   0.2591   0.0574   -0.589
 135   0.2730   0.0617   -0.653
 136   0.2871   0.0658   -0.721
 137   0.3014   0.0699   -0.771
 138   0.3159   0.0737   -0.834
 139   0.3306   0.0774   -0.874
 140   0.3455   0.0809   -0.920
 141   0.3605   0.0841   -0.961
 142   0.3757   0.0872   -0.990
 143   0.3909   0.0899   -1.019
 144   0.4063   0.0924   -1.042
 145   0.4218   0.0947   -1.057
 146   0.4373   0.0966   -1.068
 147   0.4529   0.0983   -1.080
 148   0.4686   0.0997   -1.077
 149   0.4843   0.1008   -1.072
 150   0.5000   0.1016   -1.071
 151   0.5157   0.1021   -1.053
 152   0.5314   0.1023   -1.045
 153   0.5471   0.1022   -1.024
 154   0.5627   0.1019   -1.003
 155   0.5782   0.1012   -0.979
 156   0.5937   0.1003   -0.954
 157   0.6091   0.0992   -0.924
 158   0.6243   0.0978   -0.899
 159   0.6395   0.0962   -0.869
 160   0.6545   0.0944   -0.832
 161   0.6694   0.0924   -0.810
 162   0.6841   0.0902   -0.772
 163   0.6986   0.0878   -0.747
 164   0.7129   0.0852   -0.709
 165   0.7270   0.0825   -0.682
 166   0.7409   0.0797   -0.653
 167   0.7545   0.0768   -0.621
 168   0.7679   0.0737   -0.599
 169   0.7810   0.0706   -0.564
 170   0.7939   0.0674   -0.540
 171   0.8065   0.0642   -0.517
 172   0.8187   0.0609   -0.487
 173   0.8307   0.0576   -0.472
 174   0.8423   0.0543   -0.440
 175   0.8536   0.0510   -0.425
 176   0.8645   0.0477   -0.398
 177   0.8751   0.0444   -0.383
 178   0.8853   0.0412   -0.362
 179   0.8951   0.0380   -0.338
 180   0.9045   0.0349   -0.328
 181   0.9135   0.0318   -0.300
 182   0.9222   0.0289   -0.292
 183   0.9304   0.0260   -0.269
 184   0.9382   0.0233   -0.261
 185   0.9455   0.0206   -0.231
 186   0.9524   0.0181   -0.232
 187   0.9589   0.0158   -0.195
 188   0.9649   0.0135   -0.195
 189   0.9704   0.0114   -0.180
 190   0.9755   0.0095   -0.150
 191   0.9801   0.0077   -0.146
 192   0.9843   0.0061   -0.128
 193   0.9880   0.0047   -0.111
 194   0.9911   0.0035   -0.101
 195   0.9938   0.0024   -0.063
 196   0.9961   0.0016   -0.064
 197   0.9978   0.0009   -0.082
 198   0.9990   0.0004    0.007
 199   0.9998   0.0001   -0.040

 Maximum panel corner angle = 16.524   at  i,x,y  = 101   0.0002  -0.0016

 Enter corner angle criterion for refinement (deg):   8.262
 Enter type of spline parameter (1=uniform, 2=arclength):   1
 Enter refinement x limits:  -0.10000   1.10000
 Number of points added:           10
 Max thickness =     0.144377  at x =   0.146
 Max camber    =     0.141174  at x =   0.437

 Maximum panel corner angle = 25.419   at  i,x,y  = 103   0.0001  -0.0014

.GDES   c>  
 Buffer airfoil is not identical to current airfoil

 XFOIL   c>  
 Blunt trailing edge.  Gap =  0.00028

 Paneling parameters used...
   Number of panel nodes       160
   Panel bunching parameter    1.000
   TE/LE panel density ratio   0.150
   Refined-area/LE panel density ratio    0.200
   Top    side refined area x/c limits  1.000 1.000
   Bottom side refined area x/c limits  1.000 1.000

 XFOIL   c>  
Enter output filename   s>  
 XFOIL   c>  
.OPERi   c>   Current iteration limit:          20

Enter new iteration limit   i>  
Enter new iteration limit   i>  
Enter new iteration limit   i>  
.OPERi   c>  
 M  =    0.0000
 Re =  0.3000E+06

.OPERv   c>  
 Sonic Cp =   -420.65      Sonic Q/Qinf =    22.825


.OPERv   c>  
 Polar  1 newly created for accumulation
 Airfoil archived with polar: 000225                                          

Enter  polar save filename  OR  <return> for no file   s>  
 New polar save file available

Enter  polar dump filename  OR  <return> for no file   s>  
 Polar dump file will NOT be written

 Polar accumulation enabled

.OPERva   c>   Calculating unit vorticity distributions ...
 Calculating wake trajectory ...
 Calculating source influence matrix ...

 Solving BL system ...

 Initializing BL ...
    side            1  ...
 MRCHUE: Inverse mode at  53     Hk =   4.472
 MRCHUE: Inverse mode at  54     Hk =   5.345
 MRCHUE: Inverse mode at  55     Hk =   6.207
 MRCHUE: Inverse mode at  56     Hk =   7.062
 MRCHUE: Inverse mode at  57     Hk =   7.914
 MRCHUE: Inverse mode at  58     Hk =   8.765
 MRCHUE: Inverse mode at  59     Hk =   5.387
 MRCHUE: Inverse mode at  60     Hk =   3.005
 MRCHUE: Inverse mode at  85     Hk =   2.500
 MRCHUE: Inverse mode at  86     Hk =   2.500
    side            2  ...
 MRCHUE: Inverse mode at  24     Hk =   3.835
 MRCHUE: Inverse mode at  25     Hk =   4.414
 MRCHUE: Inverse mode at  26     Hk =   5.009
 MRCHUE: Inverse mode at  27     Hk =   5.628
 MRCHUE: Inverse mode at  28     Hk =   6.279
 MRCHUE: Inverse mode at  29     Hk =   6.970
 MRCHUE: Inverse mode at  30     Hk =   7.705
 MRCHUE: Inverse mode at  31     Hk =   8.486
 MRCHUE: Inverse mode at  32     Hk =   9.306
 MRCHUE: Inverse mode at  33     Hk =   8.683
 MRCHUE: Inverse mode at  34     Hk =   5.185
 MRCHUE: Inverse mode at  35     Hk =   3.376
 MRCHUE: Inverse mode at  36     Hk =   2.500
 MRCHUE: Inverse mode at  37     Hk =   2.500
 MRCHUE: Inverse mode at  78     Hk =   2.247

 Side 1  free  transition at x/c =  0.4563   59
 Side 2  free  transition at x/c =  0.1964   33

   1   rms: 0.2554E+00   max: 0.2877E+01   T at   33  2   RLX: 0.328
       a =  2.000      CL =  1.8565
      Cm = -0.3186     CD =  0.01895   =>   CDf =  0.00851    CDp =  0.01044

 Side 1  free  transition at x/c =  0.4641   59
 Side 2  free  transition at x/c =  0.1782   32

   2   rms: 0.2157E+00   max: -.7803E+00   D at   38  2   RLX: 0.641
       a =  2.000      CL =  1.7910
      Cm = -0.3053     CD =  0.02016   =>   CDf =  0.00810    CDp =  0.01206

 Side 1  free  transition at x/c =  0.4850   60
 Side 2  free  transition at x/c =  0.1698   32

   3   rms: 0.1323E+00   max: -.6470E+00   D at   37  2   RLX: 0.773
       a =  2.000      CL =  1.7669
      Cm = -0.3004     CD =  0.01892   =>   CDf =  0.00782    CDp =  0.01110

 Side 1  free  transition at x/c =  0.4925   60
 Side 2  free  transition at x/c =  0.1670   32

   4   rms: 0.3727E-01   max: 0.5130E+00   T at   32  2
       a =  2.000      CL =  1.7477
      Cm = -0.2962     CD =  0.01944   =>   CDf =  0.00782    CDp =  0.01162

 Side 1  free  transition at x/c =  0.4987   60
 Side 2  free  transition at x/c =  0.1595   32

   5   rms: 0.2462E-01   max: -.1687E+00   D at   33  2
       a =  2.000      CL =  1.7519
      Cm = -0.2970     CD =  0.01957   =>   CDf =  0.00751    CDp =  0.01206

 Side 1  free  transition at x/c =  0.4973   60
 Side 2  free  transition at x/c =  0.1605   32

   6   rms: 0.1333E-02   max: 0.1294E-01   D at   33  2
       a =  2.000      CL =  1.7519
      Cm = -0.2970     CD =  0.01958   =>   CDf =  0.00759    CDp =  0.01198

 Side 1  free  transition at x/c =  0.4973   60
 Side 2  free  transition at x/c =  0.1604   32

   7   rms: 0.5967E-05   max: 0.5453E-04   D at   33  2
       a =  2.000      CL =  1.7519
      Cm = -0.2970     CD =  0.01958   =>   CDf =  0.00759    CDp =  0.01199

 Point added to stored polar  1
 Point written to save file  000225M0.04.log                                 
 Dump file unspecified or not available
 Calculating wake trajectory ...
 Calculating source influence matrix ...

 Solving BL system ...

 Side 1  free  transition at x/c =  0.4973   60
 Side 2  free  transition at x/c =  0.1604   32

   1   rms: 0.1622E+00   max: -.1424E+01   T at   32  2   RLX: 0.351
       a =  3.000      CL =  1.7866
      Cm = -0.2964     CD =  0.01999   =>   CDf =  0.00738    CDp =  0.01261

 Side 1  free  transition at x/c =  0.4902   60
 Side 2  free  transition at x/c =  0.1704   32

   2   rms: 0.1234E+00   max: -.1132E+01   D at    2  1   RLX: 0.442
       a =  3.000      CL =  1.8121
      Cm = -0.2954     CD =  0.02032   =>   CDf =  0.00779    CDp =  0.01253

 Side 1  free  transition at x/c =  0.4832   60
 Side 2  free  transition at x/c =  0.1769   32

   3   rms: 0.8428E-01   max: -.5946E+00   T at   32  2   RLX: 0.841
       a =  3.000      CL =  1.8419
      Cm = -0.2948     CD =  0.02071   =>   CDf =  0.00765    CDp =  0.01305

 Side 1  free  transition at x/c =  0.4758   60
 Side 2  free  transition at x/c =  0.1887   33

   4   rms: 0.3507E-01   max: 0.3278E+00   D at   33  2
       a =  3.000      CL =  1.8479
      Cm = -0.2948     CD =  0.02073   =>   CDf =  0.00783    CDp =  0.01290

 Side 1  free  transition at x/c =  0.4753   60
 Side 2  free  transition at x/c =  0.1888   33

   5   rms: 0.2348E-02   max: 0.2037E-01   D at   34  2
       a =  3.000      CL =  1.8480
      Cm = -0.2948     CD =  0.02073   =>   CDf =  0.00780    CDp =  0.01294

 Side 1  free  transition at x/c =  0.4753   60
 Side 2  free  transition at x/c =  0.1886   33

   6   rms: 0.9126E-05   max: 0.8576E-04   T at   33  2
       a =  3.000      CL =  1.8480
      Cm = -0.2948     CD =  0.02073   =>   CDf =  0.00779    CDp =  0.01294

 Point added to stored polar  1
 Point written to save file  000225M0.04.log                                 
 Dump file unspecified or not available
 Calculating wake trajectory ...
 Calculating source influence matrix ...

 Solving BL system ...

 Side 1  free  transition at x/c =  0.4753   60
 Side 2  free  transition at x/c =  0.1886   33

   1   rms: 0.1567E+00   max: -.1258E+01   T at   33  2   RLX: 0.398
       a =  4.000      CL =  1.8843
      Cm = -0.2937     CD =  0.02139   =>   CDf =  0.00756    CDp =  0.01384

 Side 1  free  transition at x/c =  0.4681   60
 Side 2  free  transition at x/c =  0.1988   32

   2   rms: 0.1517E+00   max: -.1332E+01   T at   32  2   RLX: 0.375
       a =  4.000      CL =  1.9011
      Cm = -0.2922     CD =  0.02214   =>   CDf =  0.00781    CDp =  0.01433

 Side 1  free  transition at x/c =  0.4625   60
 Side 2  free  transition at x/c =  0.2094   33

   3   rms: 0.8350E-01   max: 0.8921E+00   D at   33  2
       a =  4.000      CL =  1.9316
      Cm = -0.2906     CD =  0.02224   =>   CDf =  0.00785    CDp =  0.01438

 Side 1  free  transition at x/c =  0.4535   60
 Side 2  free  transition at x/c =  0.2172   33

   4   rms: 0.1971E-01   max: -.1393E+00   D at   34  2
       a =  4.000      CL =  1.9328
      Cm = -0.2908     CD =  0.02233   =>   CDf =  0.00798    CDp =  0.01435

 Side 1  free  transition at x/c =  0.4542   60
 Side 2  free  transition at x/c =  0.2187   34

   5   rms: 0.4789E-02   max: 0.5241E-01   D at   34  2
       a =  4.000      CL =  1.9333
      Cm = -0.2909     CD =  0.02232   =>   CDf =  0.00796    CDp =  0.01436

 Side 1  free  transition at x/c =  0.4542   60
 Side 2  free  transition at x/c =  0.2187   34

   6   rms: 0.2491E-03   max: 0.1947E-02   D at   34  2
       a =  4.000      CL =  1.9333
      Cm = -0.2909     CD =  0.02232   =>   CDf =  0.00796    CDp =  0.01436

 Side 1  free  transition at x/c =  0.4542   60
 Side 2  free  transition at x/c =  0.2186   34

   7   rms: 0.1054E-05   max: 0.6207E-05   D at   47  2
       a =  4.000      CL =  1.9333
      Cm = -0.2909     CD =  0.02232   =>   CDf =  0.00796    CDp =  0.01436

 Point added to stored polar  1
 Point written to save file  000225M0.04.log                                 
 Dump file unspecified or not available
 Calculating wake trajectory ...
 Calculating source influence matrix ...

 Solving BL system ...

 Side 1  free  transition at x/c =  0.4542   60
 Side 2  free  transition at x/c =  0.2186   34

   1   rms: 0.2698E+00   max: -.2175E+01   T at   34  2   RLX: 0.230
       a =  5.000      CL =  1.9573
      Cm = -0.2911     CD =  0.02258   =>   CDf =  0.00798    CDp =  0.01460

 Side 1  free  transition at x/c =  0.4498   59
 Side 2  free  transition at x/c =  0.2294   34

   2   rms: 0.1075E+00   max: -.6884E+00   T at   34  2   RLX: 0.726
       a =  5.000      CL =  1.9815
      Cm = -0.2847     CD =  0.02384   =>   CDf =  0.00764    CDp =  0.01620

 Side 1  free  transition at x/c =  0.4371   60
 Side 2  free  transition at x/c =  0.2445   34

   3   rms: 0.3823E-01   max: 0.3696E+00   D at   34  2
       a =  5.000      CL =  1.9996
      Cm = -0.2841     CD =  0.02442   =>   CDf =  0.00792    CDp =  0.01651

 Side 1  free  transition at x/c =  0.4344   60
 Side 2  free  transition at x/c =  0.2480   34

   4   rms: 0.4143E-02   max: -.2881E-01   T at   34  2
       a =  5.000      CL =  2.0020
      Cm = -0.2845     CD =  0.02440   =>   CDf =  0.00794    CDp =  0.01646

 Side 1  free  transition at x/c =  0.4340   60
 Side 2  free  transition at x/c =  0.2489   34

   5   rms: 0.1351E-03   max: -.5249E-03   D at   34  2
       a =  5.000      CL =  2.0021
      Cm = -0.2845     CD =  0.02440   =>   CDf =  0.00796    CDp =  0.01644

 Side 1  free  transition at x/c =  0.4339   60
 Side 2  free  transition at x/c =  0.2489   34

   6   rms: 0.2437E-05   max: 0.1554E-04   D at   84  2
       a =  5.000      CL =  2.0021
      Cm = -0.2845     CD =  0.02440   =>   CDf =  0.00796    CDp =  0.01644

 Point added to stored polar  1
 Point written to save file  000225M0.04.log                                 
 Dump file unspecified or not available
 Calculating wake trajectory ...
 Calculating source influence matrix ...

 Solving BL system ...

 Side 1  free  transition at x/c =  0.4339   60
 Side 2  free  transition at x/c =  0.2489   34

   1   rms: 0.1648E+00   max: -.1315E+01   T at   34  2   RLX: 0.380
       a =  6.000      CL =  2.0418
      Cm = -0.2845     CD =  0.02524   =>   CDf =  0.00798    CDp =  0.01726

 Side 1  free  transition at x/c =  0.4259   59
 Side 2  free  transition at x/c =  0.2662   35

   2   rms: 0.8241E-01   max: 0.4915E+00   D at   35  2
       a =  6.000      CL =  2.0569
      Cm = -0.2765     CD =  0.02692   =>   CDf =  0.00795    CDp =  0.01897

 Side 1  free  transition at x/c =  0.4143   58
 Side 2  free  transition at x/c =  0.2794   36

   3   rms: 0.2039E-01   max: -.1176E+00   T at   36  2
       a =  6.000      CL =  2.0673
      Cm = -0.2785     CD =  0.02708   =>   CDf =  0.00763    CDp =  0.01945

 Side 1  free  transition at x/c =  0.4145   59
 Side 2  free  transition at x/c =  0.2824   35

   4   rms: 0.4746E-02   max: -.6336E-01   T at    2  1
       a =  6.000      CL =  2.0676
      Cm = -0.2785     CD =  0.02711   =>   CDf =  0.00790    CDp =  0.01921

 Side 1  free  transition at x/c =  0.4145   59
 Side 2  free  transition at x/c =  0.2827   35

   5   rms: 0.1733E-02   max: 0.2781E-01   D at    5  1
       a =  6.000      CL =  2.0676
      Cm = -0.2785     CD =  0.02711   =>   CDf =  0.00790    CDp =  0.01921

 Side 1  free  transition at x/c =  0.4145   59
 Side 2  free  transition at x/c =  0.2827   35

   6   rms: 0.1529E-04   max: -.2360E-03   D at    5  1
       a =  6.000      CL =  2.0676
      Cm = -0.2785     CD =  0.02711   =>   CDf =  0.00790    CDp =  0.01921

 Point added to stored polar  1
 Point written to save file  000225M0.04.log                                 
 Dump file unspecified or not available
 Calculating wake trajectory ...
 Calculating source influence matrix ...

 Solving BL system ...

 Side 1  free  transition at x/c =  0.4145   59
 Side 2  free  transition at x/c =  0.2827   35

   1   rms: 0.1362E+00   max: -.9985E+00   T at   35  2   RLX: 0.501
       a =  7.000      CL =  2.0906
      Cm = -0.2744     CD =  0.02885   =>   CDf =  0.00792    CDp =  0.02093

 Side 1  free  transition at x/c =  0.4039   59
 Side 2  free  transition at x/c =  0.2991   36

   2   rms: 0.7270E-01   max: -.6084E+00   T at   36  2   RLX: 0.822
       a =  7.000      CL =  2.1160
      Cm = -0.2721     CD =  0.03043   =>   CDf =  0.00781    CDp =  0.02262

 Side 1  free  transition at x/c =  0.3972   59
 Side 2  free  transition at x/c =  0.3134   37

   3   rms: 0.7688E-01   max: -.5526E+00   T at   37  2   RLX: 0.905
       a =  7.000      CL =  2.1295
      Cm = -0.2729     CD =  0.03036   =>   CDf =  0.00788    CDp =  0.02248

 Side 1  free  transition at x/c =  0.3957   58
 Side 2  free  transition at x/c =  0.3229   37

   4   rms: 0.3323E-01   max: -.2764E+00   D at   37  2
       a =  7.000      CL =  2.1255
      Cm = -0.2722     CD =  0.03055   =>   CDf =  0.00785    CDp =  0.02270

 Side 1  free  transition at x/c =  0.3956   58
 Side 2  free  transition at x/c =  0.3217   37

   5   rms: 0.1150E-02   max: 0.1274E-01   D at   38  2
       a =  7.000      CL =  2.1255
      Cm = -0.2722     CD =  0.03056   =>   CDf =  0.00782    CDp =  0.02274

 Side 1  free  transition at x/c =  0.3956   58
 Side 2  free  transition at x/c =  0.3215   37

   6   rms: 0.5801E-05   max: 0.4883E-04   T at   37  2
       a =  7.000      CL =  2.1255
      Cm = -0.2722     CD =  0.03056   =>   CDf =  0.00782    CDp =  0.02274

 Point added to stored polar  1
 Point written to save file  000225M0.04.log                                 
 Dump file unspecified or not available
 Calculating wake trajectory ...
 Calculating source influence matrix ...

 Solving BL system ...

 Side 1  free  transition at x/c =  0.3956   58
 Side 2  free  transition at x/c =  0.3215   37

   1   rms: 0.1366E+00   max: -.9978E+00   T at   37  2   RLX: 0.501
       a =  8.000      CL =  2.1460
      Cm = -0.2683     CD =  0.03281   =>   CDf =  0.00748    CDp =  0.02533

 Side 1  free  transition at x/c =  0.3855   59
 Side 2  free  transition at x/c =  0.3434   37

   2   rms: 0.6947E-01   max: -.4846E+00   T at   37  2
       a =  8.000      CL =  2.1727
      Cm = -0.2654     CD =  0.03501   =>   CDf =  0.00768    CDp =  0.02733

 Side 1  free  transition at x/c =  0.3778   58
 Side 2  free  transition at x/c =  0.3671   39

   3   rms: 0.1816E-01   max: -.1438E+00   D at   38  2
       a =  8.000      CL =  2.1762
      Cm = -0.2658     CD =  0.03482   =>   CDf =  0.00772    CDp =  0.02709

 Side 1  free  transition at x/c =  0.3774   58
 Side 2  free  transition at x/c =  0.3703   39

   4   rms: 0.4674E-02   max: 0.5646E-01   D at   39  2
       a =  8.000      CL =  2.1764
      Cm = -0.2658     CD =  0.03482   =>   CDf =  0.00767    CDp =  0.02715

 Side 1  free  transition at x/c =  0.3774   58
 Side 2  free  transition at x/c =  0.3693   39

   5   rms: 0.1177E-03   max: -.2033E-02   D at   41  2
       a =  8.000      CL =  2.1764
      Cm = -0.2658     CD =  0.03482   =>   CDf =  0.00768    CDp =  0.02714

 Side 1  free  transition at x/c =  0.3774   58
 Side 2  free  transition at x/c =  0.3692   39

   6   rms: 0.3229E-05   max: 0.2423E-04   D at   85  2
       a =  8.000      CL =  2.1764
      Cm = -0.2658     CD =  0.03482   =>   CDf =  0.00768    CDp =  0.02714

 Point added to stored polar  1
 Point written to save file  000225M0.04.log                                 
 Dump file unspecified or not available
 Calculating wake trajectory ...
 Calculating source influence matrix ...

 Solving BL system ...

 Side 1  free  transition at x/c =  0.3774   58
 Side 2  free  transition at x/c =  0.3692   39

   1   rms: 0.1546E+00   max: -.1230E+01   T at   39  2   RLX: 0.406
       a =  9.000      CL =  2.1904
      Cm = -0.2628     CD =  0.03705   =>   CDf =  0.00770    CDp =  0.02934

 Side 1  free  transition at x/c =  0.3700   58
 Side 2  free  transition at x/c =  0.3866   40

   2   rms: 0.1948E+00   max: -.1850E+01   T at   40  2   RLX: 0.270
       a =  9.000      CL =  2.1995
      Cm = -0.2621     CD =  0.03807   =>   CDf =  0.00719    CDp =  0.03088

 Side 1  free  transition at x/c =  0.3671   59
 Side 2  free  transition at x/c =  0.3982   39

   3   rms: 0.9848E-01   max: -.8948E+00   T at   39  2   RLX: 0.559
       a =  9.000      CL =  2.2099
      Cm = -0.2605     CD =  0.03930   =>   CDf =  0.00753    CDp =  0.03178

 Side 1  free  transition at x/c =  0.3631   59
 Side 2  free  transition at x/c =  0.4227   41

   4   rms: 0.5593E-01   max: -.4458E+00   C at   41  2
       a =  9.000      CL =  2.2210
      Cm = -0.2594     CD =  0.03978   =>   CDf =  0.00753    CDp =  0.03225

 Side 1  free  transition at x/c =  0.3603   58
 Side 2  free  transition at x/c =  0.4457   42

   5   rms: 0.5774E-02   max: -.8788E-01   D at   41  2
       a =  9.000      CL =  2.2202
      Cm = -0.2593     CD =  0.03986   =>   CDf =  0.00750    CDp =  0.03236

 Side 1  free  transition at x/c =  0.3600   58
 Side 2  free  transition at x/c =  0.4426   42

   6   rms: 0.5485E-03   max: 0.7131E-02   C at   42  2
       a =  9.000      CL =  2.2203
      Cm = -0.2593     CD =  0.03985   =>   CDf =  0.00748    CDp =  0.03237

 Side 1  free  transition at x/c =  0.3600   58
 Side 2  free  transition at x/c =  0.4424   42

   7   rms: 0.3740E-05   max: -.3746E-04   D at   44  2
       a =  9.000      CL =  2.2203
      Cm = -0.2593     CD =  0.03985   =>   CDf =  0.00748    CDp =  0.03237

 Point added to stored polar  1
 Point written to save file  000225M0.04.log                                 
 Dump file unspecified or not available
 Calculating wake trajectory ...
 Calculating source influence matrix ...

 Solving BL system ...

 Side 1  free  transition at x/c =  0.3600   58
 Side 2  free  transition at x/c =  0.4424   42

   1   rms: 0.1806E+00   max: -.1616E+01   C at   42  2   RLX: 0.309
       a = 10.000      CL =  2.2264
      Cm = -0.2570     CD =  0.04211   =>   CDf =  0.00751    CDp =  0.03460

 Side 1  free  transition at x/c =  0.3504   58
 Side 2  free  transition at x/c =  0.4690   43

   2   rms: 0.1204E+00   max: -.8933E+00   T at   43  2   RLX: 0.560
       a = 10.000      CL =  2.2236
      Cm = -0.2530     CD =  0.04588   =>   CDf =  0.00741    CDp =  0.03847

 Side 1  free  transition at x/c =  0.3401   57
 Side 2  free  transition at x/c =  0.5271   46

   3   rms: 0.8652E-01   max: -.8634E+00   T at   46  2   RLX: 0.579
       a = 10.000      CL =  2.2189
      Cm = -0.2513     CD =  0.04827   =>   CDf =  0.00695    CDp =  0.04132

 Side 1  free  transition at x/c =  0.3363   58
 Side 2 forced transition at x/c =  1.0001   70

   4   rms: 0.3982E-01   max: 0.3954E+00   D at   45  2
       a = 10.000      CL =  2.2218
      Cm = -0.2507     CD =  0.04877   =>   CDf =  0.00695    CDp =  0.04182

 Side 1  free  transition at x/c =  0.3330   58
 Side 2 forced transition at x/c =  1.0001   70

   5   rms: 0.4523E-02   max: 0.3944E-01   D at   46  2
       a = 10.000      CL =  2.2234
      Cm = -0.2507     CD =  0.04855   =>   CDf =  0.00693    CDp =  0.04162

 Side 1  free  transition at x/c =  0.3327   58
 Side 2 forced transition at x/c =  1.0001   70

   6   rms: 0.1586E-03   max: 0.1061E-02   D at   41  2
       a = 10.000      CL =  2.2235
      Cm = -0.2507     CD =  0.04856   =>   CDf =  0.00694    CDp =  0.04162

 Side 1  free  transition at x/c =  0.3327   58
 Side 2 forced transition at x/c =  1.0001   70

   7   rms: 0.2340E-05   max: -.1100E-04   D at   82  2
       a = 10.000      CL =  2.2235
      Cm = -0.2507     CD =  0.04856   =>   CDf =  0.00694    CDp =  0.04162

 Point added to stored polar  1
 Point written to save file  000225M0.04.log                                 
 Dump file unspecified or not available
 Calculating wake trajectory ...
 Calculating source influence matrix ...

 Solving BL system ...

 Side 1  free  transition at x/c =  0.3327   58
 Side 2 forced transition at x/c =  1.0001   70

   1   rms: 0.1526E+00   max: -.4873E+00   D at   59  1   RLX: 0.656
       a = 11.000      CL =  2.2293
      Cm = -0.2463     CD =  0.05518   =>   CDf =  0.00696    CDp =  0.04821

 Side 1  free  transition at x/c =  0.3247   57
 Side 2 forced transition at x/c =  1.0001   70

   2   rms: 0.4293E-01   max: 0.1427E+00   D at   78  1
       a = 11.000      CL =  2.2444
      Cm = -0.2451     CD =  0.05752   =>   CDf =  0.00687    CDp =  0.05066

 Side 1  free  transition at x/c =  0.3118   57
 Side 2 forced transition at x/c =  1.0001   70

   3   rms: 0.9185E-02   max: -.1060E+00   D at   57  1
       a = 11.000      CL =  2.2402
      Cm = -0.2446     CD =  0.05763   =>   CDf =  0.00694    CDp =  0.05069

 Side 1  free  transition at x/c =  0.3136   57
 Side 2 forced transition at x/c =  1.0001   70

   4   rms: 0.2286E-02   max: -.1349E-01   D at   78  1
       a = 11.000      CL =  2.2419
      Cm = -0.2447     CD =  0.05744   =>   CDf =  0.00686    CDp =  0.05058

 Side 1  free  transition at x/c =  0.3134   57
 Side 2 forced transition at x/c =  1.0001   70

   5   rms: 0.1406E-03   max: -.8054E-03   D at   83  2
       a = 11.000      CL =  2.2420
      Cm = -0.2447     CD =  0.05745   =>   CDf =  0.00687    CDp =  0.05058

 Side 1  free  transition at x/c =  0.3134   57
 Side 2 forced transition at x/c =  1.0001   70

   6   rms: 0.5930E-05   max: 0.3026E-04   C at   70  2
       a = 11.000      CL =  2.2420
      Cm = -0.2447     CD =  0.05745   =>   CDf =  0.00687    CDp =  0.05058

 Point added to stored polar  1
 Point written to save file  000225M0.04.log                                 
 Dump file unspecified or not available
 Calculating wake trajectory ...
 Calculating source influence matrix ...

 Solving BL system ...

 Side 1  free  transition at x/c =  0.3134   57
 Side 2 forced transition at x/c =  1.0001   70

   1   rms: 0.1252E+00   max: -.4179E+00   D at   58  1   RLX: 0.586
       a = 12.000      CL =  2.2489
      Cm = -0.2415     CD =  0.06366   =>   CDf =  0.00644    CDp =  0.05722

 Side 1  free  transition at x/c =  0.2949   57
 Side 2 forced transition at x/c =  1.0001   69

   2   rms: 0.5585E-01   max: -.5104E+00   D at   57  1   RLX: 0.980
       a = 12.000      CL =  2.2380
      Cm = -0.2392     CD =  0.06984   =>   CDf =  0.00694    CDp =  0.06290

 Side 1  free  transition at x/c =  0.2914   56
 Side 2 forced transition at x/c =  1.0001   69

   3   rms: 0.7173E-02   max: -.5985E-01   D at   78  1
       a = 12.000      CL =  2.2400
      Cm = -0.2391     CD =  0.06932   =>   CDf =  0.00676    CDp =  0.06256

 Side 1  free  transition at x/c =  0.2892   56
 Side 2 forced transition at x/c =  1.0001   69

   4   rms: 0.4984E-03   max: -.3417E-02   D at   82  2
       a = 12.000      CL =  2.2403
      Cm = -0.2391     CD =  0.06940   =>   CDf =  0.00675    CDp =  0.06265

 Side 1  free  transition at x/c =  0.2893   56
 Side 2 forced transition at x/c =  1.0001   69

   5   rms: 0.2490E-04   max: -.1525E-03   D at   83  2
       a = 12.000      CL =  2.2404
      Cm = -0.2392     CD =  0.06940   =>   CDf =  0.00675    CDp =  0.06265

 Point added to stored polar  1
 Point written to save file  000225M0.04.log                                 
 Dump file unspecified or not available
 Calculating wake trajectory ...
 Calculating source influence matrix ...

 Solving BL system ...

 Side 1  free  transition at x/c =  0.2892   56
 Side 2 forced transition at x/c =  1.0001   69

   1   rms: 0.1159E+00   max: 0.4323E+00   D at   75  1   RLX: 0.516
       a = 13.000      CL =  2.2456
      Cm = -0.2373     CD =  0.07579   =>   CDf =  0.00631    CDp =  0.06949

 Side 1  free  transition at x/c =  0.2747   56
 Side 2 forced transition at x/c =  1.0001   68

   2   rms: 0.6368E-01   max: -.3585E+00   C at   56  1
       a = 13.000      CL =  2.2347
      Cm = -0.2354     CD =  0.08393   =>   CDf =  0.00684    CDp =  0.07709

 Side 1  free  transition at x/c =  0.2663   56
 Side 2 forced transition at x/c =  1.0001   68

   3   rms: 0.6558E-02   max: 0.6893E-01   D at   75  1
       a = 13.000      CL =  2.2302
      Cm = -0.2348     CD =  0.08324   =>   CDf =  0.00656    CDp =  0.07668

 Side 1  free  transition at x/c =  0.2657   56
 Side 2 forced transition at x/c =  1.0001   68

   4   rms: 0.1496E-03   max: 0.1472E-02   D at   83  2
       a = 13.000      CL =  2.2303
      Cm = -0.2348     CD =  0.08319   =>   CDf =  0.00657    CDp =  0.07662

 Side 1  free  transition at x/c =  0.2657   56
 Side 2 forced transition at x/c =  1.0001   68

   5   rms: 0.1018E-04   max: -.6515E-04   D at   85  2
       a = 13.000      CL =  2.2303
      Cm = -0.2348     CD =  0.08319   =>   CDf =  0.00657    CDp =  0.07662

 Point added to stored polar  1
 Point written to save file  000225M0.04.log                                 
 Dump file unspecified or not available
 Calculating wake trajectory ...
 Calculating source influence matrix ...

 Solving BL system ...

 Side 1  free  transition at x/c =  0.2657   56
 Side 2 forced transition at x/c =  1.0001   68

   1   rms: 0.1182E+00   max: 0.5130E+00   D at   73  1   RLX: 0.449
       a = 14.000      CL =  2.2249
      Cm = -0.2333     CD =  0.09046   =>   CDf =  0.00660    CDp =  0.08386

 Side 1  free  transition at x/c =  0.2564   55
 Side 2 forced transition at x/c =  1.0001   68

   2   rms: 0.6310E-01   max: 0.2956E+00   D at   74  1
       a = 14.000      CL =  2.2241
      Cm = -0.2323     CD =  0.09835   =>   CDf =  0.00604    CDp =  0.09231

 Side 1  free  transition at x/c =  0.2372   55
 Side 2 forced transition at x/c =  1.0001   67

   3   rms: 0.2059E-01   max: -.1610E+00   C at   55  1
       a = 14.000      CL =  2.2085
      Cm = -0.2319     CD =  0.09950   =>   CDf =  0.00656    CDp =  0.09294

 Side 1  free  transition at x/c =  0.2423   55
 Side 2 forced transition at x/c =  1.0001   67

   4   rms: 0.4131E-02   max: -.3157E-01   D at   74  1
       a = 14.000      CL =  2.2115
      Cm = -0.2318     CD =  0.09863   =>   CDf =  0.00640    CDp =  0.09223

 Side 1  free  transition at x/c =  0.2416   55
 Side 2 forced transition at x/c =  1.0001   67

   5   rms: 0.2677E-03   max: -.1525E-02   D at   85  2
       a = 14.000      CL =  2.2117
      Cm = -0.2318     CD =  0.09869   =>   CDf =  0.00641    CDp =  0.09228

 Side 1  free  transition at x/c =  0.2416   55
 Side 2 forced transition at x/c =  1.0001   67

   6   rms: 0.8590E-05   max: -.6749E-04   D at   82  2
       a = 14.000      CL =  2.2117
      Cm = -0.2318     CD =  0.09870   =>   CDf =  0.00641    CDp =  0.09228

 Point added to stored polar  1
 Point written to save file  000225M0.04.log                                 
 Dump file unspecified or not available
 Calculating wake trajectory ...
 Calculating source influence matrix ...

 Solving BL system ...

 Side 1  free  transition at x/c =  0.2416   55
 Side 2 forced transition at x/c =  1.0001   67

   1   rms: 0.1113E+00   max: 0.4820E+00   D at   72  1   RLX: 0.406
       a = 15.000      CL =  2.2101
      Cm = -0.2313     CD =  0.10526   =>   CDf =  0.00644    CDp =  0.09882

 Side 1  free  transition at x/c =  0.2305   54
 Side 2 forced transition at x/c =  1.0001   67

   2   rms: 0.6555E-01   max: 0.3066E+00   D at   72  1
       a = 15.000      CL =  2.2080
      Cm = -0.2310     CD =  0.11450   =>   CDf =  0.00647    CDp =  0.10803

 Side 1  free  transition at x/c =  0.2121   53
 Side 2 forced transition at x/c =  1.0001   67

   3   rms: 0.2511E-01   max: 0.1745E+00   D at   72  1
       a = 15.000      CL =  2.1874
      Cm = -0.2309     CD =  0.11618   =>   CDf =  0.00643    CDp =  0.10975

 Side 1  free  transition at x/c =  0.2183   54
 Side 2 forced transition at x/c =  1.0001   67

   4   rms: 0.2492E-02   max: -.3147E-01   D at   55  1
       a = 15.000      CL =  2.1883
      Cm = -0.2308     CD =  0.11538   =>   CDf =  0.00624    CDp =  0.10914

 Side 1  free  transition at x/c =  0.2177   54
 Side 2 forced transition at x/c =  1.0001   67

   5   rms: 0.9091E-04   max: -.1115E-02   D at   55  1
       a = 15.000      CL =  2.1883
      Cm = -0.2308     CD =  0.11538   =>   CDf =  0.00627    CDp =  0.10911

 Point added to stored polar  1
 Point written to save file  000225M0.04.log                                 
 Dump file unspecified or not available

.OPERva   c>  
 XFOIL   c>  
0.1
resp: 
 ===================================================
  XFOIL Version 6.97
  Copyright (C) 2000   Mark Drela, Harold Youngren

  This software comes with ABSOLUTELY NO WARRANTY,
    subject to the GNU General Public License.

  Caveat computor
 ===================================================

 File  xfoil.def  not found

   QUIT    Exit program

  .OPER    Direct operating point(s)
  .MDES    Complex mapping design routine
  .QDES    Surface speed design routine
  .GDES    Geometry design routine

   SAVE f  Write airfoil to labeled coordinate file
   PSAV f  Write airfoil to plain coordinate file
   ISAV f  Write airfoil to ISES coordinate file
   MSAV f  Write airfoil to MSES coordinate file
   REVE    Reverse written-airfoil node ordering
   DELI i  Change written-airfoil file delimiters

   LOAD f  Read buffer airfoil from coordinate file
   NACA i  Set NACA 4,5-digit airfoil and buffer airfoil
   INTE    Set buffer airfoil by interpolating two airfoils
   NORM    Buffer airfoil normalization toggle
   HALF    Halve the number of points in buffer airfoil
   XYCM rr Change CM reference location, currently  0.25000 0.00000

   BEND    Display structural properties of current airfoil

   PCOP    Set current-airfoil panel nodes directly from buffer airfoil points
   PANE    Set current-airfoil panel nodes ( 160 ) based on curvature
  .PPAR    Show/change paneling

  .PLOP    Plotting options

   WDEF f  Write  current-settings file
   RDEF f  Reread current-settings file
   NAME s  Specify new airfoil name
   NINC    Increment name version number

   Z       Zoom    | (available in all menus)
   U       Unzoom  | 

 XFOIL   c>   ...............................................

  G raphics-enable flag:        T
  S ize of plot object          10.00"
  A spect ratio of plot object   0.5500
  P age dimensions              11.00 x  8.50"
  M argins from page edges       0.00",  0.00"
  F ont size (relative)          0.0150
  W indow/screen size fraction   0.8000
  B lowup input method:        Cursor    
  O rientation of plot:        Landscape 
  C olor PostScript output?     F

      Option, Value   (or <Return>)    c>   ...............................................

  G raphics-enable flag:        F
  S ize of plot object          10.00"
  A spect ratio of plot object   0.5500
  P age dimensions              11.00 x  8.50"
  M argins from page edges       0.00",  0.00"
  F ont size (relative)          0.0150
  W indow/screen size fraction   0.8000
  B lowup input method:        Cursor    
  O rientation of plot:        Landscape 
  C olor PostScript output?     F

      Option, Value   (or <Return>)    c>  
 XFOIL   c>  
 Labeled airfoil file.  Name:  000225                                          

 Number of input coordinate points: 200
 Clockwise ordering
 Max thickness =     0.144494  at x =   0.147
 Max camber    =     0.139909  at x =   0.438

  LE  x,y  =  -0.00007   0.00219  |   Chord =   0.99995
  TE  x,y  =   0.99988   0.00006  |

 Current airfoil nodes set from buffer airfoil nodes ( 200 )

 XFOIL   c>  
 You are working with the buffer airfoil

.GDES   c>  
  i       x        y      angle
   2   0.9990   0.0005    0.001
   3   0.9978   0.0011    0.053
   4   0.9961   0.0020    0.020
   5   0.9938   0.0030    0.064
   6   0.9911   0.0044    0.066
   7   0.9880   0.0059    0.075
   8   0.9843   0.0077    0.085
   9   0.9801   0.0098    0.114
  10   0.9755   0.0120    0.107
  11   0.9704   0.0145    0.119
  12   0.9649   0.0171    0.137
  13   0.9589   0.0200    0.145
  14   0.9524   0.0231    0.167
  15   0.9455   0.0263    0.165
  16   0.9382   0.0298    0.188
  17   0.9304   0.0334    0.190
  18   0.9222   0.0371    0.213
  19   0.9135   0.0411    0.214
  20   0.9045   0.0451    0.234
  21   0.8951   0.0493    0.250
  22   0.8853   0.0537    0.252
  23   0.8751   0.0581    0.281
  24   0.8645   0.0627    0.280
  25   0.8536   0.0673    0.300
  26   0.8423   0.0720    0.314
  27   0.8307   0.0768    0.329
  28   0.8187   0.0816    0.338
  29   0.8065   0.0865    0.361
  30   0.7939   0.0914    0.373
  31   0.7810   0.0963    0.387
  32   0.7679   0.1012    0.401
  33   0.7545   0.1061    0.421
  34   0.7409   0.1110    0.434
  35   0.7270   0.1159    0.454
  36   0.7129   0.1207    0.475
  37   0.6986   0.1255    0.485
  38   0.6841   0.1301    0.504
  39   0.6694   0.1347    0.527
  40   0.6545   0.1392    0.542
  41   0.6395   0.1436    0.568
  42   0.6243   0.1479    0.580
  43   0.6091   0.1521    0.607
  44   0.5937   0.1560    0.627
  45   0.5782   0.1599    0.647
  46   0.5627   0.1636    0.672
  47   0.5471   0.1671    0.693
  48   0.5314   0.1704    0.717
  49   0.5157   0.1735    0.746
  50   0.5000   0.1764    0.764
  51   0.4843   0.1790    0.798
  52   0.4686   0.1815    0.820
  53   0.4529   0.1837    0.849
  54   0.4373   0.1857    0.879
  55   0.4218   0.1874    0.907
  56   0.4063   0.1889    0.940
  57   0.3909   0.1901    0.969
  58   0.3757   0.1911    1.009
  59   0.3605   0.1917    1.033
  60   0.3455   0.1921    1.076
  61   0.3306   0.1922    1.110
  62   0.3159   0.1921    1.149
  63   0.3014   0.1916    1.188
  64   0.2871   0.1908    1.226
  65   0.2730   0.1898    1.268
  66   0.2591   0.1884    1.320
  67   0.2455   0.1868    1.359
  68   0.2321   0.1849    1.409
  69   0.2190   0.1826    1.459
  70   0.2061   0.1801    1.511
  71   0.1935   0.1773    1.569
  72   0.1813   0.1742    1.617
  73   0.1693   0.1709    1.680
  74   0.1577   0.1672    1.742
  75   0.1464   0.1633    1.803
  76   0.1355   0.1591    1.869
  77   0.1249   0.1546    1.943
  78   0.1147   0.1499    2.017
  79   0.1049   0.1449    2.083
  80   0.0955   0.1397    2.168
  81   0.0865   0.1343    2.240
  82   0.0778   0.1286    2.333
  83   0.0696   0.1227    2.416
  84   0.0618   0.1166    2.497
  85   0.0545   0.1104    2.591
  86   0.0476   0.1039    2.695
  87   0.0411   0.0972    2.769
  88   0.0351   0.0904    2.873
  89   0.0296   0.0834    2.961
  90   0.0245   0.0763    3.052
  91   0.0199   0.0691    3.144
  92   0.0157   0.0617    3.232
  93   0.0120   0.0542    3.294
  94   0.0089   0.0466    3.385
  95   0.0062   0.0390    3.441
  96   0.0039   0.0313    3.491
  97   0.0022   0.0235    3.547
  98   0.0010   0.0157    3.570
  99   0.0002   0.0079    3.592
 100   0.0000   0.0000   10.599
 101   0.0002  -0.0016   16.524
 102   0.0010  -0.0032   14.058
 103   0.0022  -0.0047   11.403
 104   0.0039  -0.0061    9.096
 105   0.0062  -0.0074    7.376
 106   0.0089  -0.0085    6.077
 107   0.0120  -0.0094    5.092
 108   0.0157  -0.0102    4.345
 109   0.0199  -0.0107    3.763
 110   0.0245  -0.0110    3.278
 111   0.0296  -0.0110    2.873
 112   0.0351  -0.0108    2.537
 113   0.0411  -0.0102    2.239
 114   0.0476  -0.0094    1.982
 115   0.0545  -0.0082    1.750
 116   0.0618  -0.0068    1.540
 117   0.0696  -0.0050    1.348
 118   0.0778  -0.0029    1.165
 119   0.0865  -0.0006    1.010
 120   0.0955   0.0020    0.853
 121   0.1049   0.0049    0.710
 122   0.1147   0.0081    0.573
 123   0.1249   0.0115    0.451
 124   0.1355   0.0151    0.330
 125   0.1464   0.0189    0.213
 126   0.1577   0.0229    0.109
 127   0.1693   0.0270    0.007
 128   0.1813   0.0312   -0.096
 129   0.1935   0.0355   -0.190
 130   0.2061   0.0399   -0.275
 131   0.2190   0.0443   -0.361
 132   0.2321   0.0487   -0.437
 133   0.2455   0.0531   -0.519
 134   0.2591   0.0574   -0.589
 135   0.2730   0.0617   -0.653
 136   0.2871   0.0658   -0.721
 137   0.3014   0.0699   -0.771
 138   0.3159   0.0737   -0.834
 139   0.3306   0.0774   -0.874
 140   0.3455   0.0809   -0.920
 141   0.3605   0.0841   -0.961
 142   0.3757   0.0872   -0.990
 143   0.3909   0.0899   -1.019
 144   0.4063   0.0924   -1.042
 145   0.4218   0.0947   -1.057
 146   0.4373   0.0966   -1.068
 147   0.4529   0.0983   -1.080
 148   0.4686   0.0997   -1.077
 149   0.4843   0.1008   -1.072
 150   0.5000   0.1016   -1.071
 151   0.5157   0.1021   -1.053
 152   0.5314   0.1023   -1.045
 153   0.5471   0.1022   -1.024
 154   0.5627   0.1019   -1.003
 155   0.5782   0.1012   -0.979
 156   0.5937   0.1003   -0.954
 157   0.6091   0.0992   -0.924
 158   0.6243   0.0978   -0.899
 159   0.6395   0.0962   -0.869
 160   0.6545   0.0944   -0.832
 161   0.6694   0.0924   -0.810
 162   0.6841   0.0902   -0.772
 163   0.6986   0.0878   -0.747
 164   0.7129   0.0852   -0.709
 165   0.7270   0.0825   -0.682
 166   0.7409   0.0797   -0.653
 167   0.7545   0.0768   -0.621
 168   0.7679   0.0737   -0.599
 169   0.7810   0.0706   -0.564
 170   0.7939   0.0674   -0.540
 171   0.8065   0.0642   -0.517
 172   0.8187   0.0609   -0.487
 173   0.8307   0.0576   -0.472
 174   0.8423   0.0543   -0.440
 175   0.8536   0.0510   -0.425
 176   0.8645   0.0477   -0.398
 177   0.8751   0.0444   -0.383
 178   0.8853   0.0412   -0.362
 179   0.8951   0.0380   -0.338
 180   0.9045   0.0349   -0.328
 181   0.9135   0.0318   -0.300
 182   0.9222   0.0289   -0.292
 183   0.9304   0.0260   -0.269
 184   0.9382   0.0233   -0.261
 185   0.9455   0.0206   -0.231
 186   0.9524   0.0181   -0.232
 187   0.9589   0.0158   -0.195
 188   0.9649   0.0135   -0.195
 189   0.9704   0.0114   -0.180
 190   0.9755   0.0095   -0.150
 191   0.9801   0.0077   -0.146
 192   0.9843   0.0061   -0.128
 193   0.9880   0.0047   -0.111
 194   0.9911   0.0035   -0.101
 195   0.9938   0.0024   -0.063
 196   0.9961   0.0016   -0.064
 197   0.9978   0.0009   -0.082
 198   0.9990   0.0004    0.007
 199   0.9998   0.0001   -0.040

 Maximum panel corner angle = 16.524   at  i,x,y  = 101   0.0002  -0.0016

 Enter corner angle criterion for refinement (deg):   8.262
 Enter type of spline parameter (1=uniform, 2=arclength):   1
 Enter refinement x limits:  -0.10000   1.10000
 Number of points added:           10
 Max thickness =     0.144377  at x =   0.146
 Max camber    =     0.141174  at x =   0.437

 Maximum panel corner angle = 25.419   at  i,x,y  = 103   0.0001  -0.0014

.GDES   c>  
 Buffer airfoil is not identical to current airfoil

 XFOIL   c>  
 Blunt trailing edge.  Gap =  0.00028

 Paneling parameters used...
   Number of panel nodes       160
   Panel bunching parameter    1.000
   TE/LE panel density ratio   0.150
   Refined-area/LE panel density ratio    0.200
   Top    side refined area x/c limits  1.000 1.000
   Bottom side refined area x/c limits  1.000 1.000

 XFOIL   c>  
.OPERi   c>   Current iteration limit:          20

Enter new iteration limit   i>  
Enter new iteration limit   i>  
Enter new iteration limit   i>  
.OPERi   c>  
 M  =    0.0000
 Re =  0.3000E+06

.OPERv   c>  
 Sonic Cp =    -66.86      Sonic Q/Qinf =     9.138


.OPERv   c>  
 Polar  1 newly created for accumulation
 Airfoil archived with polar: 000225                                          

Enter  polar save filename  OR  <return> for no file   s>  
 New polar save file available

Enter  polar dump filename  OR  <return> for no file   s>  
 Polar dump file will NOT be written

 Polar accumulation enabled

.OPERva   c>   Calculating unit vorticity distributions ...
 Calculating wake trajectory ...
 Calculating source influence matrix ...

 Solving BL system ...

 Initializing BL ...
    side            1  ...
 MRCHUE: Inverse mode at  53     Hk =   4.601
 MRCHUE: Inverse mode at  54     Hk =   5.474
 MRCHUE: Inverse mode at  55     Hk =   6.336
 MRCHUE: Inverse mode at  56     Hk =   7.192
 MRCHUE: Inverse mode at  57     Hk =   8.046
 MRCHUE: Inverse mode at  58     Hk =   8.898
 MRCHUE: Inverse mode at  59     Hk =   4.769
 MRCHUE: Inverse mode at  60     Hk =   2.788
 MRCHUE: Inverse mode at  85     Hk =   2.500
 MRCHUE: Inverse mode at  86     Hk =   2.500
    side            2  ...
 MRCHUE: Inverse mode at  24     Hk =   3.844
 MRCHUE: Inverse mode at  25     Hk =   4.422
 MRCHUE: Inverse mode at  26     Hk =   5.017
 MRCHUE: Inverse mode at  27     Hk =   5.637
 MRCHUE: Inverse mode at  28     Hk =   6.288
 MRCHUE: Inverse mode at  29     Hk =   6.980
 MRCHUE: Inverse mode at  30     Hk =   7.715
 MRCHUE: Inverse mode at  31     Hk =   8.497
 MRCHUE: Inverse mode at  32     Hk =   9.318
 MRCHUE: Inverse mode at  33     Hk =   8.614
 MRCHUE: Inverse mode at  34     Hk =   5.150
 MRCHUE: Inverse mode at  35     Hk =   3.342
 MRCHUE: Inverse mode at  36     Hk =   2.500
 MRCHUE: Inverse mode at  37     Hk =   2.500
 MRCHUE: Inverse mode at  78     Hk =   2.268

 Side 1  free  transition at x/c =  0.4533   59
 Side 2  free  transition at x/c =  0.1961   33

   1   rms: 0.3223E+00   max: 0.3332E+01   T at   33  2   RLX: 0.290
       a =  2.000      CL =  1.8614
      Cm = -0.3183     CD =  0.01970   =>   CDf =  0.00861    CDp =  0.01109

 Side 1  free  transition at x/c =  0.4603   59
 Side 2  free  transition at x/c =  0.1774   32

   2   rms: 0.2536E+00   max: -.9432E+00   D at   39  2   RLX: 0.530
       a =  2.000      CL =  1.8082
      Cm = -0.3078     CD =  0.02104   =>   CDf =  0.00806    CDp =  0.01298

 Side 1  free  transition at x/c =  0.4755   60
 Side 2  free  transition at x/c =  0.1718   32

   3   rms: 0.1527E+00   max: -.7033E+00   D at   37  2   RLX: 0.711
       a =  2.000      CL =  1.7673
      Cm = -0.2999     CD =  0.01913   =>   CDf =  0.00806    CDp =  0.01107

 Side 1  free  transition at x/c =  0.4874   59
 Side 2  free  transition at x/c =  0.1664   32

   4   rms: 0.4277E-01   max: 0.4429E+00   T at   32  2
       a =  2.000      CL =  1.7631
      Cm = -0.2984     CD =  0.01986   =>   CDf =  0.00786    CDp =  0.01200

 Side 1  free  transition at x/c =  0.4968   60
 Side 2  free  transition at x/c =  0.1596   32

   5   rms: 0.2340E-01   max: -.1643E+00   D at   33  2
       a =  2.000      CL =  1.7593
      Cm = -0.2977     CD =  0.01982   =>   CDf =  0.00755    CDp =  0.01227

 Side 1  free  transition at x/c =  0.4952   60
 Side 2  free  transition at x/c =  0.1596   32

   6   rms: 0.1754E-02   max: 0.1512E-01   D at   33  2
       a =  2.000      CL =  1.7591
      Cm = -0.2977     CD =  0.01983   =>   CDf =  0.00761    CDp =  0.01222

 Side 1  free  transition at x/c =  0.4951   60
 Side 2  free  transition at x/c =  0.1595   32

   7   rms: 0.7811E-05   max: -.1002E-03   D at   32  2
       a =  2.000      CL =  1.7591
      Cm = -0.2977     CD =  0.01983   =>   CDf =  0.00761    CDp =  0.01222

 Point added to stored polar  1
 Point written to save file  000225M0.1.log                                  
 Dump file unspecified or not available
 Calculating wake trajectory ...
 Calculating source influence matrix ...

 Solving BL system ...

 Side 1  free  transition at x/c =  0.4951   60
 Side 2  free  transition at x/c =  0.1595   32

   1   rms: 0.1607E+00   max: -.1393E+01   T at   32  2   RLX: 0.359
       a =  3.000      CL =  1.7950
      Cm = -0.2971     CD =  0.02033   =>   CDf =  0.00740    CDp =  0.01293

 Side 1  free  transition at x/c =  0.4884   60
 Side 2  free  transition at x/c =  0.1688   32

   2   rms: 0.1943E+00   max: -.1563E+01   T at   32  2   RLX: 0.320
       a =  3.000      CL =  1.8154
      Cm = -0.2969     CD =  0.02057   =>   CDf =  0.00771    CDp =  0.01286

 Side 1  free  transition at x/c =  0.4830   60
 Side 2  free  transition at x/c =  0.1748   32

   3   rms: 0.1247E+00   max: -.7190E+00   T at   32  2   RLX: 0.695
       a =  3.000      CL =  1.8421
      Cm = -0.2957     CD =  0.02100   =>   CDf =  0.00754    CDp =  0.01346

 Side 1  free  transition at x/c =  0.4753   60
 Side 2  free  transition at x/c =  0.1839   33

   4   rms: 0.1530E+00   max: -.7245E+00   T at   33  2   RLX: 0.690
       a =  3.000      CL =  1.8553
      Cm = -0.2965     CD =  0.02088   =>   CDf =  0.00774    CDp =  0.01314

 Side 1  free  transition at x/c =  0.4738   60
 Side 2  free  transition at x/c =  0.1903   33

   5   rms: 0.5527E-01   max: -.2876E+00   D at   37  2
       a =  3.000      CL =  1.8559
      Cm = -0.2955     CD =  0.02103   =>   CDf =  0.00773    CDp =  0.01330

 Side 1  free  transition at x/c =  0.4731   60
 Side 2  free  transition at x/c =  0.1881   33

   6   rms: 0.2577E-02   max: -.2877E-01   D at   37  2
       a =  3.000      CL =  1.8554
      Cm = -0.2954     CD =  0.02106   =>   CDf =  0.00783    CDp =  0.01323

 Side 1  free  transition at x/c =  0.4731   60
 Side 2  free  transition at x/c =  0.1878   33

   7   rms: 0.8322E-04   max: -.8559E-03   D at   36  2
       a =  3.000      CL =  1.8554
      Cm = -0.2954     CD =  0.02105   =>   CDf =  0.00784    CDp =  0.01322

 Point added to stored polar  1
 Point written to save file  000225M0.1.log                                  
 Dump file unspecified or not available
 Calculating wake trajectory ...
 Calculating source influence matrix ...

 Solving BL system ...

 Side 1  free  transition at x/c =  0.4731   60
 Side 2  free  transition at x/c =  0.1878   33

   1   rms: 0.1643E+00   max: -.1344E+01   T at   33  2   RLX: 0.372
       a =  4.000      CL =  1.8926
      Cm = -0.2949     CD =  0.02176   =>   CDf =  0.00760    CDp =  0.01416

 Side 1  free  transition at x/c =  0.4658   60
 Side 2  free  transition at x/c =  0.1974   32

   2   rms: 0.1617E+00   max: -.1434E+01   T at    2  1   RLX: 0.349
       a =  4.000      CL =  1.9080
      Cm = -0.2934     CD =  0.02227   =>   CDf =  0.00779    CDp =  0.01448

 Side 1  free  transition at x/c =  0.4605   60
 Side 2  free  transition at x/c =  0.2062   33

   3   rms: 0.6839E-01   max: 0.5353E+00   D at   33  2
       a =  4.000      CL =  1.9372
      Cm = -0.2907     CD =  0.02256   =>   CDf =  0.00786    CDp =  0.01471

 Side 1  free  transition at x/c =  0.4520   59
 Side 2  free  transition at x/c =  0.2156   33

   4   rms: 0.3502E-01   max: -.1961E+00   D at   33  2
       a =  4.000      CL =  1.9376
      Cm = -0.2908     CD =  0.02273   =>   CDf =  0.00793    CDp =  0.01479

 Side 1  free  transition at x/c =  0.4521   59
 Side 2  free  transition at x/c =  0.2174   33

   5   rms: 0.1916E-02   max: 0.2149E-01   D at   34  2
       a =  4.000      CL =  1.9378
      Cm = -0.2908     CD =  0.02272   =>   CDf =  0.00795    CDp =  0.01477

 Side 1  free  transition at x/c =  0.4520   59
 Side 2  free  transition at x/c =  0.2172   33

   6   rms: 0.4485E-04   max: 0.4356E-03   D at   34  2
       a =  4.000      CL =  1.9378
      Cm = -0.2908     CD =  0.02272   =>   CDf =  0.00795    CDp =  0.01478

 Point added to stored polar  1
 Point written to save file  000225M0.1.log                                  
 Dump file unspecified or not available
 Calculating wake trajectory ...
 Calculating source influence matrix ...

 Solving BL system ...

 Side 1  free  transition at x/c =  0.4520   59
 Side 2  free  transition at x/c =  0.2172   33

   1   rms: 0.1428E+00   max: -.1260E+01   T at   33  2   RLX: 0.397
       a =  5.000      CL =  1.9544
      Cm = -0.2861     CD =  0.02355   =>   CDf =  0.00797    CDp =  0.01558

 MRCHDU: Convergence failed at  35  side 2    Res =  0.1310E+01
 MRCHDU: Convergence failed at  36  side 2    Res =  0.5028E+01
 MRCHDU: Convergence failed at  37  side 2    Res =  0.2017E+01
 MRCHDU: Convergence failed at  38  side 2    Res =  0.2343E+01
 MRCHDU: Convergence failed at  39  side 2    Res =  0.3260E+01
 MRCHDU: Convergence failed at  40  side 2    Res =  0.4535E+01
 MRCHDU: Convergence failed at  41  side 2    Res =  0.6467E+01
 MRCHDU: Convergence failed at  42  side 2    Res =  0.9112E+01
 MRCHDU: Convergence failed at  43  side 2    Res =  0.1321E+02
 MRCHDU: Convergence failed at  44  side 2    Res =  0.1986E+02
 MRCHDU: Convergence failed at  45  side 2    Res =  0.3183E+02
 MRCHDU: Convergence failed at  46  side 2    Res =  0.5789E+02
 MRCHDU: Convergence failed at  47  side 2    Res =  0.1601E+03
 MRCHDU: Convergence failed at  48  side 2    Res =  0.3857E+03
 MRCHDU: Convergence failed at  49  side 2    Res =  0.1011E+03
 MRCHDU: Convergence failed at  50  side 2    Res =  0.6157E+02
 MRCHDU: Convergence failed at  51  side 2    Res =  0.4804E+02
 MRCHDU: Convergence failed at  52  side 2    Res =  0.3876E+02
 MRCHDU: Convergence failed at  53  side 2    Res =  0.3328E+02
 MRCHDU: Convergence failed at  54  side 2    Res =  0.3113E+02
 MRCHDU: Convergence failed at  55  side 2    Res =  0.2995E+02
 MRCHDU: Convergence failed at  56  side 2    Res =  0.3226E+02
 MRCHDU: Convergence failed at  57  side 2    Res =  0.3887E+02
 MRCHDU: Convergence failed at  58  side 2    Res =  0.6611E+02
 MRCHDU: Convergence failed at  59  side 2    Res =  0.4612E+03
 MRCHDU: Convergence failed at  60  side 2    Res =  0.3272E+02
 MRCHDU: Convergence failed at  61  side 2    Res =  0.1357E+02
 MRCHDU: Convergence failed at  62  side 2    Res =  0.7632E+01
 MRCHDU: Convergence failed at  63  side 2    Res =  0.4760E+01
 MRCHDU: Convergence failed at  64  side 2    Res =  0.3059E+01
 MRCHDU: Convergence failed at  65  side 2    Res =  0.2090E+01
 MRCHDU: Convergence failed at  66  side 2    Res =  0.1490E+01
 Side 1  free  transition at x/c =  0.4434   59
 Side 2  free  transition at x/c =  0.2330   34

   2   rms: 0.2542E+00   max: -.1215E+01   D at   65  2   RLX: 0.412
       a =  5.000      CL =  1.9291
      Cm = -0.2724     CD =  0.02346   =>   CDf =  0.00641    CDp =  0.01705

 Side 1  free  transition at x/c =  0.4380   60
 Side 2  free  transition at x/c =  0.2418   34

   3   rms: 0.1194E+00   max: 0.6637E+00   D at   36  2
       a =  5.000      CL =  2.0099
      Cm = -0.2852     CD =  0.02469   =>   CDf =  0.00820    CDp =  0.01649

 Side 1  free  transition at x/c =  0.4324   59
 Side 2  free  transition at x/c =  0.2523   34

   4   rms: 0.2381E-01   max: -.2176E+00   C at   34  2
       a =  5.000      CL =  2.0045
      Cm = -0.2841     CD =  0.02492   =>   CDf =  0.00792    CDp =  0.01700

 Side 1  free  transition at x/c =  0.4320   59
 Side 2  free  transition at x/c =  0.2466   34

   5   rms: 0.1082E-02   max: -.1876E-01   D at   35  2
       a =  5.000      CL =  2.0048
      Cm = -0.2841     CD =  0.02492   =>   CDf =  0.00789    CDp =  0.01703

 Side 1  free  transition at x/c =  0.4320   59
 Side 2  free  transition at x/c =  0.2466   34

   6   rms: 0.2714E-04   max: 0.3303E-03   D at   35  2
       a =  5.000      CL =  2.0048
      Cm = -0.2841     CD =  0.02492   =>   CDf =  0.00789    CDp =  0.01703

 Point added to stored polar  1
 Point written to save file  000225M0.1.log                                  
 Dump file unspecified or not available
 Calculating wake trajectory ...
 Calculating source influence matrix ...

 Solving BL system ...

 Side 1  free  transition at x/c =  0.4320   59
 Side 2  free  transition at x/c =  0.2466   34

   1   rms: 0.1359E+00   max: -.1019E+01   T at   34  2   RLX: 0.490
       a =  6.000      CL =  2.0320
      Cm = -0.2802     CD =  0.02626   =>   CDf =  0.00791    CDp =  0.01835

 Side 1  free  transition at x/c =  0.4209   59
 Side 2  free  transition at x/c =  0.2620   35

   2   rms: 0.7292E-01   max: -.5697E+00   T at   35  2   RLX: 0.878
       a =  6.000      CL =  2.0644
      Cm = -0.2781     CD =  0.02765   =>   CDf =  0.00787    CDp =  0.01978

 Side 1  free  transition at x/c =  0.4141   58
 Side 2  free  transition at x/c =  0.2745   36

   3   rms: 0.1012E+00   max: -.5897E+00   T at   36  2   RLX: 0.848
       a =  6.000      CL =  2.0699
      Cm = -0.2783     CD =  0.02774   =>   CDf =  0.00793    CDp =  0.01981

 Side 1  free  transition at x/c =  0.4126   58
 Side 2  free  transition at x/c =  0.2817   36

   4   rms: 0.3340E-01   max: -.2493E+00   D at   36  2
       a =  6.000      CL =  2.0694
      Cm = -0.2780     CD =  0.02780   =>   CDf =  0.00784    CDp =  0.01997

 Side 1  free  transition at x/c =  0.4124   58
 Side 2  free  transition at x/c =  0.2801   36

   5   rms: 0.7929E-03   max: -.1207E-01   D at   39  2
       a =  6.000      CL =  2.0693
      Cm = -0.2780     CD =  0.02781   =>   CDf =  0.00785    CDp =  0.01996

 Side 1  free  transition at x/c =  0.4124   58
 Side 2  free  transition at x/c =  0.2801   36

   6   rms: 0.6638E-05   max: -.9344E-04   D at   39  2
       a =  6.000      CL =  2.0693
      Cm = -0.2780     CD =  0.02781   =>   CDf =  0.00785    CDp =  0.01996

 Point added to stored polar  1
 Point written to save file  000225M0.1.log                                  
 Dump file unspecified or not available
 Calculating wake trajectory ...
 Calculating source influence matrix ...

 Solving BL system ...

 Side 1  free  transition at x/c =  0.4124   58
 Side 2  free  transition at x/c =  0.2801   36

   1   rms: 0.1413E+00   max: -.1091E+01   T at   36  2   RLX: 0.458
       a =  7.000      CL =  2.0935
      Cm = -0.2747     CD =  0.02941   =>   CDf =  0.00754    CDp =  0.02187

 Side 1  free  transition at x/c =  0.4023   59
 Side 2  free  transition at x/c =  0.2933   36

   2   rms: 0.2230E+00   max: -.1773E+01   T at   36  2   RLX: 0.282
       a =  7.000      CL =  2.1052
      Cm = -0.2741     CD =  0.03031   =>   CDf =  0.00783    CDp =  0.02248

 Side 1  free  transition at x/c =  0.3997   59
 Side 2  free  transition at x/c =  0.3016   36

   3   rms: 0.9123E-01   max: -.6065E+00   T at   36  2   RLX: 0.824
       a =  7.000      CL =  2.1256
      Cm = -0.2723     CD =  0.03118   =>   CDf =  0.00780    CDp =  0.02338

 Side 1  free  transition at x/c =  0.3954   58
 Side 2  free  transition at x/c =  0.3178   37

   4   rms: 0.1066E-01   max: 0.8656E-01   D at   37  2
       a =  7.000      CL =  2.1253
      Cm = -0.2714     CD =  0.03153   =>   CDf =  0.00781    CDp =  0.02371

 Side 1  free  transition at x/c =  0.3935   58
 Side 2  free  transition at x/c =  0.3179   37

   5   rms: 0.1299E-02   max: -.6680E-02   D at   84  1
       a =  7.000      CL =  2.1262
      Cm = -0.2715     CD =  0.03148   =>   CDf =  0.00774    CDp =  0.02374

 Side 1  free  transition at x/c =  0.3935   58
 Side 2  free  transition at x/c =  0.3180   37

   6   rms: 0.3123E-04   max: -.2039E-03   D at   82  2
       a =  7.000      CL =  2.1263
      Cm = -0.2715     CD =  0.03148   =>   CDf =  0.00774    CDp =  0.02374

 Point added to stored polar  1
 Point written to save file  000225M0.1.log                                  
 Dump file unspecified or not available
 Calculating wake trajectory ...
 Calculating source influence matrix ...

 Solving BL system ...

 Side 1  free  transition at x/c =  0.3935   58
 Side 2  free  transition at x/c =  0.3180   37

   1   rms: 0.1399E+00   max: -.1101E+01   T at   37  2   RLX: 0.454
       a =  8.000      CL =  2.1473
      Cm = -0.2683     CD =  0.03352   =>   CDf =  0.00741    CDp =  0.02611

 Side 1  free  transition at x/c =  0.3840   59
 Side 2  free  transition at x/c =  0.3336   37

   2   rms: 0.1425E+00   max: -.1253E+01   T at   37  2   RLX: 0.399
       a =  8.000      CL =  2.1601
      Cm = -0.2671     CD =  0.03472   =>   CDf =  0.00772    CDp =  0.02700

 Side 1  free  transition at x/c =  0.3805   59
 Side 2  free  transition at x/c =  0.3447   37

   3   rms: 0.7686E-01   max: -.6690E+00   T at   37  2   RLX: 0.747
       a =  8.000      CL =  2.1763
      Cm = -0.2658     CD =  0.03551   =>   CDf =  0.00773    CDp =  0.02778

 MRCHDU: Convergence failed at  39  side 2    Res =  0.6770E+01
 MRCHDU: Convergence failed at  40  side 2    Res =  0.1198E+05
 MRCHDU: Convergence failed at  41  side 2    Res =  0.6143E+01
 MRCHDU: Convergence failed at  42  side 2    Res =  0.5152E+01
 MRCHDU: Convergence failed at  43  side 2    Res =  0.5138E+01
 MRCHDU: Convergence failed at  44  side 2    Res =  0.5188E+01
 MRCHDU: Convergence failed at  45  side 2    Res =  0.5177E+01
 MRCHDU: Convergence failed at  46  side 2    Res =  0.5108E+01
 MRCHDU: Convergence failed at  47  side 2    Res =  0.4974E+01
 MRCHDU: Convergence failed at  48  side 2    Res =  0.4856E+01
 MRCHDU: Convergence failed at  49  side 2    Res =  0.4970E+01
 MRCHDU: Convergence failed at  50  side 2    Res =  0.4983E+01
 MRCHDU: Convergence failed at  51  side 2    Res =  0.4964E+01
 MRCHDU: Convergence failed at  52  side 2    Res =  0.7512E+01
 Side 1  free  transition at x/c =  0.3771   58
 Side 2  free  transition at x/c =  0.3643   38

   4   rms: 0.9908E-01   max: -.6968E+00   D at   52  2   RLX: 0.718
       a =  8.000      CL =  2.1727
      Cm = -0.2645     CD =  0.03572   =>   CDf =  0.00736    CDp =  0.02836

 Side 1  free  transition at x/c =  0.3758   58
 Side 2  free  transition at x/c =  0.3485   38

   5   rms: 0.8673E-01   max: -.7331E+00   D at   40  2   RLX: 0.682
       a =  8.000      CL =  2.1753
      Cm = -0.2649     CD =  0.03601   =>   CDf =  0.00775    CDp =  0.02826

 Side 1  free  transition at x/c =  0.3755   58
 Side 2  free  transition at x/c =  0.3557   38

   6   rms: 0.4717E-01   max: -.5871E+00   D at   40  2   RLX: 0.852
       a =  8.000      CL =  2.1756
      Cm = -0.2649     CD =  0.03603   =>   CDf =  0.00763    CDp =  0.02841

 Side 1  free  transition at x/c =  0.3753   58
 Side 2  free  transition at x/c =  0.3637   38

   7   rms: 0.1165E-01   max: -.1865E+00   D at   40  2
       a =  8.000      CL =  2.1759
      Cm = -0.2650     CD =  0.03601   =>   CDf =  0.00761    CDp =  0.02841

 Side 1  free  transition at x/c =  0.3753   58
 Side 2  free  transition at x/c =  0.3648   38

   8   rms: 0.7035E-03   max: -.1287E-01   D at   40  2
       a =  8.000      CL =  2.1759
      Cm = -0.2650     CD =  0.03601   =>   CDf =  0.00760    CDp =  0.02841

 Side 1  free  transition at x/c =  0.3753   58
 Side 2  free  transition at x/c =  0.3646   38

   9   rms: 0.5748E-05   max: -.8062E-04   D at   40  2
       a =  8.000      CL =  2.1759
      Cm = -0.2650     CD =  0.03601   =>   CDf =  0.00760    CDp =  0.02841

 Point added to stored polar  1
 Point written to save file  000225M0.1.log                                  
 Dump file unspecified or not available
 Calculating wake trajectory ...
 Calculating source influence matrix ...

 Solving BL system ...

 Side 1  free  transition at x/c =  0.3753   58
 Side 2  free  transition at x/c =  0.3646   38

   1   rms: 0.1379E+00   max: -.1042E+01   T at   38  2   RLX: 0.480
       a =  9.000      CL =  2.1927
      Cm = -0.2614     CD =  0.03883   =>   CDf =  0.00762    CDp =  0.03121

 MRCHDU: Convergence failed at  40  side 2    Res =  0.4279E+01
 MRCHDU: Convergence failed at  41  side 2    Res =  0.4078E+01
 MRCHDU: Convergence failed at  42  side 2    Res =  0.4928E+01
 MRCHDU: Convergence failed at  43  side 2    Res =  0.1144E+02
 MRCHDU: Convergence failed at  44  side 2    Res =  0.3867E+02
 MRCHDU: Convergence failed at  45  side 2    Res =  0.2942E+03
 MRCHDU: Convergence failed at  46  side 2    Res =  0.4779E+03
 MRCHDU: Convergence failed at  47  side 2    Res =  0.7569E+02
 MRCHDU: Convergence failed at  48  side 2    Res =  0.2330E+02
 MRCHDU: Convergence failed at  49  side 2    Res =  0.1147E+02
 MRCHDU: Convergence failed at  50  side 2    Res =  0.6340E+01
 Side 1  free  transition at x/c =  0.3660   58
 Side 2  free  transition at x/c =  0.3980   40

   2   rms: 0.1589E+00   max: -.1054E+01   D at   49  2   RLX: 0.474
       a =  9.000      CL =  2.2006
      Cm = -0.2587     CD =  0.04005   =>   CDf =  0.00680    CDp =  0.03325

 Side 1  free  transition at x/c =  0.3622   59
 Side 2  free  transition at x/c =  0.4195   40

   3   rms: 0.4835E-01   max: -.4625E+00   D at   41  2
       a =  9.000      CL =  2.2252
      Cm = -0.2589     CD =  0.04088   =>   CDf =  0.00755    CDp =  0.03333

 Side 1  free  transition at x/c =  0.3584   58
 Side 2  free  transition at x/c =  0.4390   41

   4   rms: 0.2165E-01   max: -.3115E+00   C at   41  2
       a =  9.000      CL =  2.2177
      Cm = -0.2584     CD =  0.04141   =>   CDf =  0.00747    CDp =  0.03393

 Side 1  free  transition at x/c =  0.3580   58
 Side 2  free  transition at x/c =  0.4311   41

   5   rms: 0.1651E-02   max: 0.2537E-01   D at   43  2
       a =  9.000      CL =  2.2184
      Cm = -0.2585     CD =  0.04134   =>   CDf =  0.00739    CDp =  0.03395

 Side 1  free  transition at x/c =  0.3579   58
 Side 2  free  transition at x/c =  0.4320   41

   6   rms: 0.4069E-04   max: -.4017E-03   C at   41  2
       a =  9.000      CL =  2.2184
      Cm = -0.2585     CD =  0.04134   =>   CDf =  0.00739    CDp =  0.03395

 Point added to stored polar  1
 Point written to save file  000225M0.1.log                                  
 Dump file unspecified or not available
 Calculating wake trajectory ...
 Calculating source influence matrix ...

 Solving BL system ...

 Side 1  free  transition at x/c =  0.3579   58
 Side 2  free  transition at x/c =  0.4320   41

   1   rms: 0.1503E+00   max: -.9975E+00   T at   41  2   RLX: 0.501
       a = 10.000      CL =  2.2307
      Cm = -0.2548     CD =  0.04500   =>   CDf =  0.00742    CDp =  0.03758

 Side 1  free  transition at x/c =  0.3426   57
 Side 2  free  transition at x/c =  0.4780   44

   2   rms: 0.1276E+00   max: -.1317E+01   C at   44  2   RLX: 0.380
       a = 10.000      CL =  2.2140
      Cm = -0.2499     CD =  0.04852   =>   CDf =  0.00751    CDp =  0.04102

 Side 1  free  transition at x/c =  0.3404   57
 Side 2  free  transition at x/c =  0.4966   45

   3   rms: 0.1390E+00   max: -.1878E+01   C at   45  2   RLX: 0.266
       a = 10.000      CL =  2.2154
      Cm = -0.2497     CD =  0.04942   =>   CDf =  0.00728    CDp =  0.04214

 Side 1  free  transition at x/c =  0.3385   57
 Side 2  free  transition at x/c =  0.5131   46

   4   rms: 0.1589E+00   max: -.2360E+01   C at   46  2   RLX: 0.212
       a = 10.000      CL =  2.2172
      Cm = -0.2499     CD =  0.04976   =>   CDf =  0.00721    CDp =  0.04255

 Side 1  free  transition at x/c =  0.3372   57
 Side 2  free  transition at x/c =  0.5312   47

   5   rms: 0.2006E+00   max: -.3272E+01   C at   47  2   RLX: 0.153
       a = 10.000      CL =  2.2187
      Cm = -0.2501     CD =  0.04993   =>   CDf =  0.00716    CDp =  0.04277

 Side 1  free  transition at x/c =  0.3364   57
 Side 2  free  transition at x/c =  0.5493   47

   6   rms: 0.9549E-01   max: -.1375E+01   C at   47  2   RLX: 0.364
       a = 10.000      CL =  2.2212
      Cm = -0.2504     CD =  0.05019   =>   CDf =  0.00712    CDp =  0.04308

 Side 1  free  transition at x/c =  0.3348   57
 Side 2 forced transition at x/c =  1.0001   71

   7   rms: 0.4063E-01   max: -.3581E+00   D at   46  2
       a = 10.000      CL =  2.2241
      Cm = -0.2503     CD =  0.05013   =>   CDf =  0.00642    CDp =  0.04371

 Side 1  free  transition at x/c =  0.3320   58
 Side 2 forced transition at x/c =  1.0001   70

   8   rms: 0.7526E-02   max: 0.5140E-01   D at   41  2
       a = 10.000      CL =  2.2250
      Cm = -0.2503     CD =  0.05002   =>   CDf =  0.00688    CDp =  0.04314

 Side 1  free  transition at x/c =  0.3319   58
 Side 2 forced transition at x/c =  1.0001   70

   9   rms: 0.1263E-02   max: -.1205E-01   D at    4  1
       a = 10.000      CL =  2.2250
      Cm = -0.2503     CD =  0.05003   =>   CDf =  0.00688    CDp =  0.04315

 Side 1  free  transition at x/c =  0.3317   58
 Side 2 forced transition at x/c =  1.0001   70

  10   rms: 0.9195E-05   max: -.7335E-04   D at   59  1
       a = 10.000      CL =  2.2250
      Cm = -0.2503     CD =  0.05003   =>   CDf =  0.00689    CDp =  0.04314

 Point added to stored polar  1
 Point written to save file  000225M0.1.log                                  
 Dump file unspecified or not available
 Calculating wake trajectory ...
 Calculating source influence matrix ...

 Solving BL system ...

 Side 1  free  transition at x/c =  0.3317   58
 Side 2 forced transition at x/c =  1.0001   70

   1   rms: 0.1629E+00   max: -.5958E+00   D at   59  1   RLX: 0.630
       a = 11.000      CL =  2.2270
      Cm = -0.2458     CD =  0.05686   =>   CDf =  0.00691    CDp =  0.04994

 MRCHDU: Convergence failed at  58  side 1    Res =  0.3285E+01
 MRCHDU: Convergence failed at  59  side 1    Res =  0.2366E+01
 MRCHDU: Convergence failed at  60  side 1    Res =  0.3646E+01
 MRCHDU: Convergence failed at  61  side 1    Res =  0.7384E+01
 MRCHDU: Convergence failed at  62  side 1    Res =  0.1334E+02
 MRCHDU: Convergence failed at  63  side 1    Res =  0.2381E+02
 MRCHDU: Convergence failed at  64  side 1    Res =  0.5176E+02
 MRCHDU: Convergence failed at  65  side 1    Res =  0.7759E+03
 MRCHDU: Convergence failed at  66  side 1    Res =  0.5907E+02
 MRCHDU: Convergence failed at  67  side 1    Res =  0.2705E+02
 MRCHDU: Convergence failed at  68  side 1    Res =  0.1754E+02
 MRCHDU: Convergence failed at  69  side 1    Res =  0.1119E+02
 MRCHDU: Convergence failed at  70  side 1    Res =  0.7796E+01
 MRCHDU: Convergence failed at  71  side 1    Res =  0.2086E+02
 MRCHDU: Convergence failed at  72  side 1    Res =  0.3262E+03
 MRCHDU: Convergence failed at  73  side 1    Res =  0.5424E+02
 MRCHDU: Convergence failed at  74  side 1    Res =  0.1036E+02
 MRCHDU: Convergence failed at  75  side 1    Res =  0.2165E+02
 MRCHDU: Convergence failed at  76  side 1    Res =  0.4565E+03
 MRCHDU: Convergence failed at  77  side 1    Res =  0.1911E+02
 MRCHDU: Convergence failed at  78  side 1    Res =  0.1670E+02
 MRCHDU: Convergence failed at  79  side 1    Res =  0.7879E+02
 MRCHDU: Convergence failed at  80  side 1    Res =  0.1493E+02
 MRCHDU: Convergence failed at  81  side 1    Res =  0.1563E+02
 MRCHDU: Convergence failed at  82  side 1    Res =  0.3526E+02
 MRCHDU: Convergence failed at  83  side 1    Res =  0.1187E+03
 MRCHDU: Convergence failed at  84  side 1    Res =  0.2180E+02
 MRCHDU: Convergence failed at  85  side 1    Res =  0.1595E+02
 MRCHDU: Convergence failed at  86  side 1    Res =  0.9673E+01
 MRCHDU: Convergence failed at  87  side 1    Res =  0.1428E+02
 MRCHDU: Convergence failed at  88  side 1    Res =  0.2008E+02
 MRCHDU: Convergence failed at  89  side 1    Res =  0.3358E+02
 MRCHDU: Convergence failed at  90  side 1    Res =  0.3674E+02
 MRCHDU: Convergence failed at  91  side 1    Res =  0.7426E+02
 MRCHDU: Convergence failed at  92  side 1    Res =  0.2316E+03
 MRCHDU: Convergence failed at  81  side 2    Res =  0.7976E+01
 MRCHDU: Convergence failed at  82  side 2    Res =  0.2537E+01
 MRCHDU: Convergence failed at  83  side 2    Res =  0.1717E+02
 Side 1  free  transition at x/c =  0.3250   57
 Side 2 forced transition at x/c =  1.0001   70

   2   rms: 0.9782E+00   max: 0.4387E+01   D at   92  1   RLX: 0.342
       a = 11.000      CL =  3.1421
      Cm = -0.6207     CD =  0.01099   =>   CDf =  0.00396    CDp =  0.00704

 MRCHDU: Convergence failed at  77  side 2    Res =  0.6515E+01
 Side 1  free  transition at x/c =  0.2949   57
 Side 2 forced transition at x/c =  1.0001   69

   3   rms: 0.4617E+00   max: 0.8166E+00   T at   70  2   RLX: 0.590
       a = 11.000      CL =  2.9251
      Cm = -0.4232     CD =  0.01740   =>   CDf =  0.01077    CDp =  0.00663

 Side 1  free  transition at x/c =  0.2760   57
 Side 2 forced transition at x/c =  1.0001   67

   4   rms: 0.3852E+00   max: 0.1520E+01   D at   76  2   RLX: 0.635
       a = 11.000      CL =  2.6195
      Cm = -0.3145     CD =  0.02880   =>   CDf =  0.01027    CDp =  0.01853

 MRCHDU: Convergence failed at  86  side 1    Res =  0.9165E+00
 MRCHDU: Convergence failed at  87  side 1    Res =  0.1383E+01
 MRCHDU: Convergence failed at  88  side 1    Res =  0.2369E+01
 Side 1  free  transition at x/c =  0.2894   57
 Side 2 forced transition at x/c =  1.0001   68

   5   rms: 0.2799E+00   max: 0.1559E+01   D at   88  1   RLX: 0.962
       a = 11.000      CL =  2.3894
      Cm = -0.2565     CD =  0.04405   =>   CDf =  0.00874    CDp =  0.03531

 MRCHDU: Convergence failed at  87  side 1    Res =  0.2166E+02
 Side 1  free  transition at x/c =  0.2961   57
 Side 2 forced transition at x/c =  1.0001   69

   6   rms: 0.2165E+00   max: 0.1639E+01   D at   87  1   RLX: 0.915
       a = 11.000      CL =  2.2688
      Cm = -0.2512     CD =  0.06014   =>   CDf =  0.00805    CDp =  0.05210

 Side 1  free  transition at x/c =  0.3125   57
 Side 2 forced transition at x/c =  1.0001   70

   7   rms: 0.6831E-01   max: -.9276E+00   T at    2  2   RLX: 0.539
       a = 11.000      CL =  2.2517
      Cm = -0.2458     CD =  0.05804   =>   CDf =  0.00689    CDp =  0.05114

 Side 1  free  transition at x/c =  0.3120   57
 Side 2 forced transition at x/c =  1.0001   70

   8   rms: 0.1815E-01   max: 0.1431E+00   D at   82  2
       a = 11.000      CL =  2.2393
      Cm = -0.2441     CD =  0.05963   =>   CDf =  0.00687    CDp =  0.05277

 Side 1  free  transition at x/c =  0.3117   57
 Side 2 forced transition at x/c =  1.0001   70

   9   rms: 0.1317E-02   max: 0.1749E-01   D at   83  2
       a = 11.000      CL =  2.2405
      Cm = -0.2442     CD =  0.05940   =>   CDf =  0.00684    CDp =  0.05256

 Side 1  free  transition at x/c =  0.3117   57
 Side 2 forced transition at x/c =  1.0001   70

  10   rms: 0.4462E-04   max: -.2943E-03   D at   83  2
       a = 11.000      CL =  2.2405
      Cm = -0.2442     CD =  0.05940   =>   CDf =  0.00684    CDp =  0.05256

 Point added to stored polar  1
 Point written to save file  000225M0.1.log                                  
 Dump file unspecified or not available
 Calculating wake trajectory ...
 Calculating source influence matrix ...

 Solving BL system ...

 Side 1  free  transition at x/c =  0.3117   57
 Side 2 forced transition at x/c =  1.0001   70

   1   rms: 0.1232E+00   max: -.3641E+00   D at   58  1   RLX: 0.571
       a = 12.000      CL =  2.2521
      Cm = -0.2412     CD =  0.06494   =>   CDf =  0.00642    CDp =  0.05852

 Side 1  free  transition at x/c =  0.2931   57
 Side 2 forced transition at x/c =  1.0001   69

   2   rms: 0.6398E-01   max: -.6174E+00   D at   57  1   RLX: 0.810
       a = 12.000      CL =  2.2372
      Cm = -0.2391     CD =  0.07077   =>   CDf =  0.00692    CDp =  0.06386

 Side 1  free  transition at x/c =  0.2933   57
 Side 2 forced transition at x/c =  1.0001   69

   3   rms: 0.1880E-01   max: -.2031E+00   D at   58  1
       a = 12.000      CL =  2.2350
      Cm = -0.2386     CD =  0.07202   =>   CDf =  0.00666    CDp =  0.06536

 Side 1  free  transition at x/c =  0.2888   56
 Side 2 forced transition at x/c =  1.0001   69

   4   rms: 0.5563E-02   max: -.5805E-01   D at   56  1
       a = 12.000      CL =  2.2366
      Cm = -0.2388     CD =  0.07189   =>   CDf =  0.00669    CDp =  0.06519

 Side 1  free  transition at x/c =  0.2878   56
 Side 2 forced transition at x/c =  1.0001   69

   5   rms: 0.8819E-03   max: -.5531E-02   D at   76  1
       a = 12.000      CL =  2.2373
      Cm = -0.2388     CD =  0.07181   =>   CDf =  0.00667    CDp =  0.06514

 Side 1  free  transition at x/c =  0.2877   56
 Side 2 forced transition at x/c =  1.0001   69

   6   rms: 0.6297E-04   max: -.4197E-03   D at   83  2
       a = 12.000      CL =  2.2374
      Cm = -0.2388     CD =  0.07181   =>   CDf =  0.00667    CDp =  0.06514

 Point added to stored polar  1
 Point written to save file  000225M0.1.log                                  
 Dump file unspecified or not available
 Calculating wake trajectory ...
 Calculating source influence matrix ...

 Solving BL system ...

 Side 1  free  transition at x/c =  0.2877   56
 Side 2 forced transition at x/c =  1.0001   69

   1   rms: 0.1158E+00   max: 0.4332E+00   D at   74  1   RLX: 0.497
       a = 13.000      CL =  2.2417
      Cm = -0.2371     CD =  0.07817   =>   CDf =  0.00623    CDp =  0.07194

 Side 1  free  transition at x/c =  0.2760   56
 Side 2 forced transition at x/c =  1.0001   68

   2   rms: 0.7840E-01   max: 0.7988E+00   T at    2  1
       a = 13.000      CL =  2.2320
      Cm = -0.2352     CD =  0.08654   =>   CDf =  0.00675    CDp =  0.07980

 Side 1  free  transition at x/c =  0.2627   56
 Side 2 forced transition at x/c =  1.0001   68

   3   rms: 0.1135E-01   max: 0.1016E+00   D at   57  1
       a = 13.000      CL =  2.2259
      Cm = -0.2346     CD =  0.08598   =>   CDf =  0.00660    CDp =  0.07938

 Side 1  free  transition at x/c =  0.2649   56
 Side 2 forced transition at x/c =  1.0001   68

   4   rms: 0.1967E-02   max: -.1480E-01   D at   75  1
       a = 13.000      CL =  2.2271
      Cm = -0.2346     CD =  0.08572   =>   CDf =  0.00650    CDp =  0.07922

 Side 1  free  transition at x/c =  0.2648   56
 Side 2 forced transition at x/c =  1.0001   68

   5   rms: 0.1613E-03   max: -.8263E-03   D at   82  2
       a = 13.000      CL =  2.2273
      Cm = -0.2346     CD =  0.08574   =>   CDf =  0.00651    CDp =  0.07923

 Side 1  free  transition at x/c =  0.2648   56
 Side 2 forced transition at x/c =  1.0001   68

   6   rms: 0.5337E-05   max: -.4688E-04   D at   83  2
       a = 13.000      CL =  2.2273
      Cm = -0.2346     CD =  0.08574   =>   CDf =  0.00651    CDp =  0.07923

 Point added to stored polar  1
 Point written to save file  000225M0.1.log                                  
 Dump file unspecified or not available
 Calculating wake trajectory ...
 Calculating source influence matrix ...

 Solving BL system ...

 Side 1  free  transition at x/c =  0.2648   56
 Side 2 forced transition at x/c =  1.0001   68

   1   rms: 0.1176E+00   max: 0.4982E+00   D at   73  1   RLX: 0.436
       a = 14.000      CL =  2.2229
      Cm = -0.2333     CD =  0.09272   =>   CDf =  0.00654    CDp =  0.08619

 Side 1  free  transition at x/c =  0.2560   55
 Side 2 forced transition at x/c =  1.0001   68

   2   rms: 0.6463E-01   max: 0.2958E+00   D at   73  1
       a = 14.000      CL =  2.2222
      Cm = -0.2324     CD =  0.10106   =>   CDf =  0.00598    CDp =  0.09508

 Side 1  free  transition at x/c =  0.2374   55
 Side 2 forced transition at x/c =  1.0001   67

   3   rms: 0.2295E-01   max: -.2434E+00   T at    2  1
       a = 14.000      CL =  2.2083
      Cm = -0.2320     CD =  0.10173   =>   CDf =  0.00702    CDp =  0.09470

 Side 1  free  transition at x/c =  0.2422   54
 Side 2 forced transition at x/c =  1.0001   68

   4   rms: 0.2036E-02   max: -.1739E-01   D at    3  1
       a = 14.000      CL =  2.2090
      Cm = -0.2319     CD =  0.10134   =>   CDf =  0.00634    CDp =  0.09501

 Side 1  free  transition at x/c =  0.2416   54
 Side 2 forced transition at x/c =  1.0001   68

   5   rms: 0.9439E-03   max: 0.1195E-01   D at    4  2
       a = 14.000      CL =  2.2090
      Cm = -0.2319     CD =  0.10136   =>   CDf =  0.00634    CDp =  0.09502

 Side 1  free  transition at x/c =  0.2416   54
 Side 2 forced transition at x/c =  1.0001   68

   6   rms: 0.1211E-04   max: -.9867E-04   D at   86  2
       a = 14.000      CL =  2.2090
      Cm = -0.2319     CD =  0.10136   =>   CDf =  0.00634    CDp =  0.09502

 Point added to stored polar  1
 Point written to save file  000225M0.1.log                                  
 Dump file unspecified or not available
 Calculating wake trajectory ...
 Calculating source influence matrix ...

 Solving BL system ...

 Side 1  free  transition at x/c =  0.2416   54
 Side 2 forced transition at x/c =  1.0001   68

   1   rms: 0.1198E+00   max: 0.5697E+00   D at   71  1   RLX: 0.389
       a = 15.000      CL =  2.2021
      Cm = -0.2317     CD =  0.10887 Got result {'DD': 0.01958, 'Dmin': 0.01983, 'LL': -1.7519}
Completed successfully in 2.81 seconds. [{'DD': 0.01958, 'Dmin': 0.01983, 'LL': -1.7519}]
  =>   CDf =  0.00587    CDp =  0.10300

 Side 1  free  transition at x/c =  0.2322   55
 Side 2 forced transition at x/c =  1.0001   67

   2   rms: 0.7219E-01   max: 0.3865E+00   D at   72  1
       a = 15.000      CL =  2.1855
      Cm = -0.2311     CD =  0.12053   =>   CDf =  0.00632    CDp =  0.11421

 Side 1  free  transition at x/c =  0.2192   54
 Side 2 forced transition at x/c =  1.0001   67

   3   rms: 0.1094E-01   max: -.1171E+00   D at   54  1
       a = 15.000      CL =  2.1876
      Cm = -0.2313     CD =  0.11800   =>   CDf =  0.00616    CDp =  0.11184

 Side 1  free  transition at x/c =  0.2188   54
 Side 2 forced transition at x/c =  1.0001   67

   4   rms: 0.1478E-02   max: -.1164E-01   D at   71  1
       a = 15.000      CL =  2.1884
      Cm = -0.2313     CD =  0.11772   =>   CDf =  0.00616    CDp =  0.11156

 Side 1  free  transition at x/c =  0.2185   54
 Side 2 forced transition at x/c =  1.0001   67

   5   rms: 0.1306E-03   max: -.6877E-03   D at   86  2
       a = 15.000      CL =  2.1885
      Cm = -0.2313     CD =  0.11775   =>   CDf =  0.00617    CDp =  0.11158

 Side 1  free  transition at x/c =  0.2185   54
 Side 2 forced transition at x/c =  1.0001   67

   6   rms: 0.1154E-04   max: -.1077E-03   D at   86  2
       a = 15.000      CL =  2.1885
      Cm = -0.2313     CD =  0.11775   =>   CDf =  0.00617    CDp =  0.11158

 Point added to stored polar  1
 Point written to save file  000225M0.1.log                                  
 Dump file unspecified or not available

.OPERva   c>  
 XFOIL   c>  
