Job launching after 0.49 seconds in submission.
Running python job.
Changed into dir /home/simonx/Documents/Udacity/Projects/capstone/PESM_NSGA2_CST_XFoil
Importing evaluationFunctionXFoil.py
Running evaluationFunctionXFoil.main()
0
1
2
0.04
resp: 
 ===================================================
  XFOIL Version 6.97
  Copyright (C) 2000   Mark Drela, Harold Youngren

  This software comes with ABSOLUTELY NO WARRANTY,
    subject to the GNU General Public License.

  Caveat computor
 ===================================================

 File  xfoil.def  not found

   QUIT    Exit program

  .OPER    Direct operating point(s)
  .MDES    Complex mapping design routine
  .QDES    Surface speed design routine
  .GDES    Geometry design routine

   SAVE f  Write airfoil to labeled coordinate file
   PSAV f  Write airfoil to plain coordinate file
   ISAV f  Write airfoil to ISES coordinate file
   MSAV f  Write airfoil to MSES coordinate file
   REVE    Reverse written-airfoil node ordering
   DELI i  Change written-airfoil file delimiters

   LOAD f  Read buffer airfoil from coordinate file
   NACA i  Set NACA 4,5-digit airfoil and buffer airfoil
   INTE    Set buffer airfoil by interpolating two airfoils
   NORM    Buffer airfoil normalization toggle
   HALF    Halve the number of points in buffer airfoil
   XYCM rr Change CM reference location, currently  0.25000 0.00000

   BEND    Display structural properties of current airfoil

   PCOP    Set current-airfoil panel nodes directly from buffer airfoil points
   PANE    Set current-airfoil panel nodes ( 160 ) based on curvature
  .PPAR    Show/change paneling

  .PLOP    Plotting options

   WDEF f  Write  current-settings file
   RDEF f  Reread current-settings file
   NAME s  Specify new airfoil name
   NINC    Increment name version number

   Z       Zoom    | (available in all menus)
   U       Unzoom  | 

 XFOIL   c>   ...............................................

  G raphics-enable flag:        T
  S ize of plot object          10.00"
  A spect ratio of plot object   0.5500
  P age dimensions              11.00 x  8.50"
  M argins from page edges       0.00",  0.00"
  F ont size (relative)          0.0150
  W indow/screen size fraction   0.8000
  B lowup input method:        Cursor    
  O rientation of plot:        Landscape 
  C olor PostScript output?     F

      Option, Value   (or <Return>)    c>   ...............................................

  G raphics-enable flag:        F
  S ize of plot object          10.00"
  A spect ratio of plot object   0.5500
  P age dimensions              11.00 x  8.50"
  M argins from page edges       0.00",  0.00"
  F ont size (relative)          0.0150
  W indow/screen size fraction   0.8000
  B lowup input method:        Cursor    
  O rientation of plot:        Landscape 
  C olor PostScript output?     F

      Option, Value   (or <Return>)    c>  
 XFOIL   c>  
 Labeled airfoil file.  Name:  000264                                          

 Number of input coordinate points: 200
 Clockwise ordering
 Max thickness =     0.208854  at x =   0.232
 Max camber    =     0.020239  at x =   0.437

  LE  x,y  =  -0.00002  -0.00160  |   Chord =   0.99990
  TE  x,y  =   0.99988   0.00006  |

 Current airfoil nodes set from buffer airfoil nodes ( 200 )

 XFOIL   c>  
 You are working with the buffer airfoil

.GDES   c>  
  i       x        y      angle
   2   0.9990   0.0004    0.068
   3   0.9978   0.0010    0.251
   4   0.9961   0.0017    0.221
   5   0.9938   0.0027    0.305
   6   0.9911   0.0039    0.374
   7   0.9880   0.0052    0.404
   8   0.9843   0.0067    0.473
   9   0.9801   0.0084    0.518
  10   0.9755   0.0102    0.553
  11   0.9704   0.0121    0.591
  12   0.9649   0.0141    0.615
  13   0.9589   0.0163    0.655
  14   0.9524   0.0185    0.668
  15   0.9455   0.0208    0.684
  16   0.9382   0.0231    0.685
  17   0.9304   0.0255    0.694
  18   0.9222   0.0279    0.684
  19   0.9135   0.0303    0.670
  20   0.9045   0.0327    0.658
  21   0.8951   0.0350    0.632
  22   0.8853   0.0374    0.605
  23   0.8751   0.0398    0.564
  24   0.8645   0.0421    0.531
  25   0.8536   0.0444    0.488
  26   0.8423   0.0466    0.447
  27   0.8307   0.0489    0.393
  28   0.8187   0.0511    0.355
  29   0.8065   0.0533    0.298
  30   0.7939   0.0555    0.258
  31   0.7810   0.0577    0.209
  32   0.7679   0.0599    0.161
  33   0.7545   0.0620    0.127
  34   0.7409   0.0642    0.090
  35   0.7270   0.0664    0.049
  36   0.7129   0.0687    0.025
  37   0.6986   0.0709    0.004
  38   0.6841   0.0732   -0.013
  39   0.6694   0.0756   -0.028
  40   0.6545   0.0779   -0.030
  41   0.6395   0.0803   -0.022
  42   0.6243   0.0827   -0.020
  43   0.6091   0.0851    0.001
  44   0.5937   0.0876    0.025
  45   0.5782   0.0901    0.051
  46   0.5627   0.0925    0.093
  47   0.5471   0.0950    0.136
  48   0.5314   0.0974    0.181
  49   0.5157   0.0998    0.236
  50   0.5000   0.1021    0.297
  51   0.4843   0.1043    0.361
  52   0.4686   0.1064    0.431
  53   0.4529   0.1084    0.499
  54   0.4373   0.1103    0.577
  55   0.4218   0.1119    0.648
  56   0.4063   0.1134    0.728
  57   0.3909   0.1147    0.801
  58   0.3757   0.1158    0.879
  59   0.3605   0.1166    0.950
  60   0.3455   0.1172    1.022
  61   0.3306   0.1175    1.090
  62   0.3159   0.1175    1.148
  63   0.3014   0.1173    1.206
  64   0.2871   0.1167    1.262
  65   0.2730   0.1158    1.292
  66   0.2591   0.1146    1.336
  67   0.2455   0.1132    1.359
  68   0.2321   0.1114    1.375
  69   0.2190   0.1093    1.389
  70   0.2061   0.1070    1.383
  71   0.1935   0.1044    1.385
  72   0.1813   0.1016    1.362
  73   0.1693   0.0985    1.351
  74   0.1577   0.0952    1.321
  75   0.1464   0.0917    1.293
  76   0.1355   0.0881    1.256
  77   0.1249   0.0843    1.238
  78   0.1147   0.0804    1.192
  79   0.1049   0.0764    1.172
  80   0.0955   0.0724    1.141
  81   0.0865   0.0683    1.125
  82   0.0778   0.0642    1.127
  83   0.0696   0.0601    1.125
  84   0.0618   0.0560    1.150
  85   0.0545   0.0519    1.190
  86   0.0476   0.0479    1.269
  87   0.0411   0.0440    1.360
  88   0.0351   0.0401    1.515
  89   0.0296   0.0363    1.695
  90   0.0245   0.0326    1.974
  91   0.0199   0.0290    2.293
  92   0.0157   0.0255    2.769
  93   0.0120   0.0221    3.297
  94   0.0089   0.0188    4.041
  95   0.0062   0.0155    4.908
  96   0.0039   0.0123    5.937
  97   0.0022   0.0092    7.087
  98   0.0010   0.0061    8.145
  99   0.0002   0.0030    8.960
 100   0.0000   0.0000    6.448
 101   0.0002  -0.0078    3.630
 102   0.0010  -0.0156    3.682
 103   0.0022  -0.0233    3.775
 104   0.0039  -0.0308    3.882
 105   0.0062  -0.0381    4.024
 106   0.0089  -0.0452    4.193
 107   0.0120  -0.0521    4.345
 108   0.0157  -0.0586    4.514
 109   0.0199  -0.0648    4.659
 110   0.0245  -0.0706    4.761
 111   0.0296  -0.0760    4.805
 112   0.0351  -0.0810    4.814
 113   0.0411  -0.0855    4.715
 114   0.0476  -0.0896    4.589
 115   0.0545  -0.0933    4.360
 116   0.0618  -0.0965    4.097
 117   0.0696  -0.0992    3.799
 118   0.0778  -0.1015    3.463
 119   0.0865  -0.1033    3.122
 120   0.0955  -0.1047    2.798
 121   0.1049  -0.1058    2.468
 122   0.1147  -0.1064    2.155
 123   0.1249  -0.1067    1.869
 124   0.1355  -0.1066    1.598
 125   0.1464  -0.1062    1.350
 126   0.1577  -0.1056    1.122
 127   0.1693  -0.1047    0.933
 128   0.1813  -0.1036    0.739
 129   0.1935  -0.1023    0.580
 130   0.2061  -0.1008    0.440
 131   0.2190  -0.0992    0.315
 132   0.2321  -0.0975    0.205
 133   0.2455  -0.0957    0.113
 134   0.2591  -0.0939    0.035
 135   0.2730  -0.0920   -0.029
 136   0.2871  -0.0901   -0.077
 137   0.3014  -0.0881   -0.114
 138   0.3159  -0.0862   -0.138
 139   0.3306  -0.0843   -0.162
 140   0.3455  -0.0824   -0.158
 141   0.3605  -0.0805   -0.161
 142   0.3757  -0.0787   -0.151
 143   0.3909  -0.0769   -0.128
 144   0.4063  -0.0751   -0.109
 145   0.4218  -0.0733   -0.079
 146   0.4373  -0.0716   -0.055
 147   0.4529  -0.0698   -0.011
 148   0.4686  -0.0681    0.020
 149   0.4843  -0.0663    0.055
 150   0.5000  -0.0645    0.090
 151   0.5157  -0.0627    0.121
 152   0.5314  -0.0609    0.161
 153   0.5471  -0.0590    0.179
 154   0.5627  -0.0571    0.210
 155   0.5782  -0.0551    0.232
 156   0.5937  -0.0531    0.246
 157   0.6091  -0.0510    0.256
 158   0.6243  -0.0489    0.260
 159   0.6395  -0.0467    0.262
 160   0.6545  -0.0445    0.254
 161   0.6694  -0.0422    0.243
 162   0.6841  -0.0398    0.226
 163   0.6986  -0.0375    0.202
 164   0.7129  -0.0351    0.178
 165   0.7270  -0.0327    0.139
 166   0.7409  -0.0304    0.105
 167   0.7545  -0.0280    0.065
 168   0.7679  -0.0257    0.012
 169   0.7810  -0.0234   -0.024
 170   0.7939  -0.0211   -0.082
 171   0.8065  -0.0190   -0.130
 172   0.8187  -0.0169   -0.180
 173   0.8307  -0.0149   -0.243
 174   0.8423  -0.0130   -0.281
 175   0.8536  -0.0112   -0.338
 176   0.8645  -0.0096   -0.390
 177   0.8751  -0.0080   -0.437
 178   0.8853  -0.0066   -0.476
 179   0.8951  -0.0054   -0.519
 180   0.9045  -0.0042   -0.548
 181   0.9135  -0.0033   -0.587
 182   0.9222  -0.0024   -0.606
 183   0.9304  -0.0017   -0.624
 184   0.9382  -0.0011   -0.632
 185   0.9455  -0.0006   -0.651
 186   0.9524  -0.0002   -0.631
 187   0.9589   0.0001   -0.629
 188   0.9649   0.0003   -0.617
 189   0.9704   0.0004   -0.581
 190   0.9755   0.0005   -0.574
 191   0.9801   0.0005   -0.511
 192   0.9843   0.0005   -0.488
 193   0.9880   0.0004   -0.437
 194   0.9911   0.0003   -0.385
 195   0.9938   0.0002   -0.321
 196   0.9961   0.0002   -0.240
 197   0.9978   0.0001   -0.251
 198   0.9990   0.0000   -0.044
 199   0.9998   0.0000   -0.228

 Maximum panel corner angle =  8.960   at  i,x,y  =  99   0.0002   0.0030

 Enter corner angle criterion for refinement (deg):   4.480
 Enter type of spline parameter (1=uniform, 2=arclength):   1
 Enter refinement x limits:  -0.10000   1.10000
 Number of points added:           26
 Max thickness =     0.208901  at x =   0.232
 Max camber    =    -0.020968  at x =   0.045

 Maximum panel corner angle =  5.140   at  i,x,y  = 109   0.0001   0.0023

.GDES   c>  
 Buffer airfoil is not identical to current airfoil

 XFOIL   c>  
 Blunt trailing edge.  Gap =  0.00027

 Paneling parameters used...
   Number of panel nodes       160
   Panel bunching parameter    1.000
   TE/LE panel density ratio   0.150
   Refined-area/LE panel density ratio    0.200
   Top    side refined area x/c limits  1.000 1.000
   Bottom side refined area x/c limits  1.000 1.000

 XFOIL   c>  
Enter output filename   s>  
 XFOIL   c>  
.OPERi   c>   Current iteration limit:          20

Enter new iteration limit   i>  
Enter new iteration limit   i>  
Enter new iteration limit   i>  
.OPERi   c>  
 M  =    0.0000
 Re =  0.3000E+06

.OPERv   c>  
 Sonic Cp =   -420.65      Sonic Q/Qinf =    22.825


.OPERv   c>  
 Polar  1 newly created for accumulation
 Airfoil archived with polar: 000264                                          

Enter  polar save filename  OR  <return> for no file   s>  
 New polar save file available

Enter  polar dump filename  OR  <return> for no file   s>  
 Polar dump file will NOT be written

 Polar accumulation enabled

.OPERva   c>   Calculating unit vorticity distributions ...
 Calculating wake trajectory ...
 Calculating source influence matrix ...

 Solving BL system ...

 Initializing BL ...
    side            1  ...
 MRCHUE: Inverse mode at  55     Hk =   4.591
 MRCHUE: Inverse mode at  56     Hk =   5.429
 MRCHUE: Inverse mode at  57     Hk =   6.269
 MRCHUE: Inverse mode at  58     Hk =   7.117
 MRCHUE: Inverse mode at  59     Hk =   7.980
 MRCHUE: Inverse mode at  60     Hk =   8.862
 MRCHUE: Inverse mode at  61     Hk =   8.877
 MRCHUE: Inverse mode at  62     Hk =   4.776
 MRCHUE: Inverse mode at  63     Hk =   2.807
 MRCHUE: Convergence failed at  86  side 1    Res =  0.7111E+01
    side            2  ...
 MRCHUE: Inverse mode at  35     Hk =   4.122
 MRCHUE: Inverse mode at  36     Hk =   4.884
 MRCHUE: Inverse mode at  37     Hk =   5.665
 MRCHUE: Inverse mode at  38     Hk =   6.480
 MRCHUE: Inverse mode at  39     Hk =   7.338
 MRCHUE: Inverse mode at  40     Hk =   8.252
 MRCHUE: Inverse mode at  41     Hk =   9.230
 MRCHUE: Inverse mode at  42     Hk =   7.383
 MRCHUE: Inverse mode at  43     Hk =   3.455
 MRCHUE: Convergence failed at  76  side 2    Res =  0.9317E+01

 MRCHDU: Convergence failed at  86  side 1    Res =  0.7161E+01
 MRCHDU: Convergence failed at  76  side 2    Res =  0.1111E+03
 Side 1  free  transition at x/c =  0.4713   61
 Side 2  free  transition at x/c =  0.2312   42

   1   rms: 0.6035E+00   max: 0.2921E+01   D at   78  2   RLX: 0.456
       a =  2.000      CL =  0.5946
      Cm = -0.1264     CD =  0.00783   =>   CDf =  0.00875    CDp = -0.00092

 Side 1  free  transition at x/c =  0.4790   62
 Side 2  free  transition at x/c =  0.2263   42

   2   rms: 0.2201E+00   max: 0.9742E+00   D at   81  2
       a =  2.000      CL =  0.5063
      Cm = -0.1044     CD =  0.01446   =>   CDf =  0.00886    CDp =  0.00560

 Side 1  free  transition at x/c =  0.4829   61
 Side 2  free  transition at x/c =  0.2218   43

   3   rms: 0.1835E-01   max: -.1821E+00   D at   80  2
       a =  2.000      CL =  0.5035
      Cm = -0.1034     CD =  0.01657   =>   CDf =  0.00876    CDp =  0.00781

 Side 1  free  transition at x/c =  0.4826   61
 Side 2  free  transition at x/c =  0.2208   43

   4   rms: 0.1865E-02   max: -.1936E-01   D at   80  2
       a =  2.000      CL =  0.5027
      Cm = -0.1032     CD =  0.01661   =>   CDf =  0.00873    CDp =  0.00789

 Side 1  free  transition at x/c =  0.4827   61
 Side 2  free  transition at x/c =  0.2205   43

   5   rms: 0.4575E-04   max: 0.3287E-03   T at   43  2
       a =  2.000      CL =  0.5027
      Cm = -0.1032     CD =  0.01661   =>   CDf =  0.00873    CDp =  0.00788

 Point added to stored polar  1
 Point written to save file  000264M0.04.log                                 
 Dump file unspecified or not available
 Calculating wake trajectory ...
 Calculating source influence matrix ...

 Solving BL system ...

 Side 1  free  transition at x/c =  0.4827   61
 Side 2  free  transition at x/c =  0.2205   43

   1   rms: 0.1765E+00   max: -.8383E+00   T at   43  2   RLX: 0.596
       a =  3.000      CL =  0.5663
      Cm = -0.1023     CD =  0.01545   =>   CDf =  0.00866    CDp =  0.00679

 Side 1  free  transition at x/c =  0.4746   62
 Side 2  free  transition at x/c =  0.2381   42

   2   rms: 0.6289E-01   max: 0.1753E+00   C at   42  2
       a =  3.000      CL =  0.6230
      Cm = -0.1040     CD =  0.01723   =>   CDf =  0.00859    CDp =  0.00864

 Side 1  free  transition at x/c =  0.4692   62
 Side 2  free  transition at x/c =  0.2397   42

   3   rms: 0.1334E-01   max: -.1637E+00   D at   62  1
       a =  3.000      CL =  0.6155
      Cm = -0.1024     CD =  0.01668   =>   CDf =  0.00862    CDp =  0.00805

 Side 1  free  transition at x/c =  0.4693   62
 Side 2  free  transition at x/c =  0.2389   42

   4   rms: 0.6527E-03   max: 0.5839E-02   D at   63  1
       a =  3.000      CL =  0.6158
      Cm = -0.1024     CD =  0.01667   =>   CDf =  0.00861    CDp =  0.00806

 Side 1  free  transition at x/c =  0.4692   62
 Side 2  free  transition at x/c =  0.2389   42

   5   rms: 0.1038E-04   max: 0.3442E-04   T at   42  2
       a =  3.000      CL =  0.6158
      Cm = -0.1024     CD =  0.01667   =>   CDf =  0.00861    CDp =  0.00806

 Point added to stored polar  1
 Point written to save file  000264M0.04.log                                 
 Dump file unspecified or not available
 Calculating wake trajectory ...
 Calculating source influence matrix ...

 Solving BL system ...

 Side 1  free  transition at x/c =  0.4692   62
 Side 2  free  transition at x/c =  0.2389   42

   1   rms: 0.1767E+00   max: -.8153E+00   T at   42  2   RLX: 0.613
       a =  4.000      CL =  0.6796
      Cm = -0.1012     CD =  0.01566   =>   CDf =  0.00852    CDp =  0.00714

 Side 1  free  transition at x/c =  0.4608   63
 Side 2  free  transition at x/c =  0.2640   42

   2   rms: 0.5421E-01   max: -.6501E-01   D at   43  2
       a =  4.000      CL =  0.7272
      Cm = -0.1012     CD =  0.01654   =>   CDf =  0.00837    CDp =  0.00817

 Side 1  free  transition at x/c =  0.4560   63
 Side 2  free  transition at x/c =  0.2641   42

   3   rms: 0.4656E-02   max: -.5393E-01   D at   63  1
       a =  4.000      CL =  0.7275
      Cm = -0.1013     CD =  0.01657   =>   CDf =  0.00839    CDp =  0.00818

 Side 1  free  transition at x/c =  0.4562   63
 Side 2  free  transition at x/c =  0.2638   42

   4   rms: 0.6795E-04   max: 0.7470E-03   D at   63  1
       a =  4.000      CL =  0.7275
      Cm = -0.1013     CD =  0.01657   =>   CDf =  0.00839    CDp =  0.00818

 Point added to stored polar  1
 Point written to save file  000264M0.04.log                                 
 Dump file unspecified or not available
 Calculating wake trajectory ...
 Calculating source influence matrix ...

 Solving BL system ...

 Side 1  free  transition at x/c =  0.4562   63
 Side 2  free  transition at x/c =  0.2638   42

   1   rms: 0.1494E+00   max: -.7710E+00   T at   42  2   RLX: 0.648
       a =  5.000      CL =  0.8019
      Cm = -0.1012     CD =  0.01662   =>   CDf =  0.00828    CDp =  0.00834

 Side 1  free  transition at x/c =  0.4504   63
 Side 2  free  transition at x/c =  0.2809   42

   2   rms: 0.1231E+00   max: -.5662E+00   T at   42  2   RLX: 0.883
       a =  5.000      CL =  0.8309
      Cm = -0.0999     CD =  0.01605   =>   CDf =  0.00825    CDp =  0.00780

 Side 1  free  transition at x/c =  0.4449   64
 Side 2  free  transition at x/c =  0.3291   43

   3   rms: 0.6459E-01   max: -.6622E+00   D at   43  2   RLX: 0.755
       a =  5.000      CL =  0.8356
      Cm = -0.0999     CD =  0.01712   =>   CDf =  0.00797    CDp =  0.00915

 Side 1  free  transition at x/c =  0.4442   64
 Side 2  free  transition at x/c =  0.3031   41

   4   rms: 0.2433E-01   max: 0.3742E+00   D at   42  2
       a =  5.000      CL =  0.8392
      Cm = -0.1003     CD =  0.01690   =>   CDf =  0.00809    CDp =  0.00880

 Side 1  free  transition at x/c =  0.4440   64
 Side 2  free  transition at x/c =  0.3002   41

   5   rms: 0.2170E-02   max: -.3186E-01   D at   43  2
       a =  5.000      CL =  0.8391
      Cm = -0.1003     CD =  0.01688   =>   CDf =  0.00806    CDp =  0.00882

 Side 1  free  transition at x/c =  0.4440   64
 Side 2  free  transition at x/c =  0.2993   41

   6   rms: 0.3176E-04   max: -.3949E-03   D at   43  2
       a =  5.000      CL =  0.8391
      Cm = -0.1003     CD =  0.01688   =>   CDf =  0.00806    CDp =  0.00881

 Point added to stored polar  1
 Point written to save file  000264M0.04.log                                 
 Dump file unspecified or not available
 Calculating wake trajectory ...
 Calculating source influence matrix ...

 Solving BL system ...

 Side 1  free  transition at x/c =  0.4440   64
 Side 2  free  transition at x/c =  0.2992   41

   1   rms: 0.1390E+00   max: -.7341E+00   T at   41  2   RLX: 0.681
       a =  6.000      CL =  0.9144
      Cm = -0.0993     CD =  0.01709   =>   CDf =  0.00794    CDp =  0.00915

 Side 1  free  transition at x/c =  0.4351   65
 Side 2  free  transition at x/c =  0.3351   42

   2   rms: 0.6750E-01   max: -.4619E+00   C at   42  2
       a =  6.000      CL =  0.9541
      Cm = -0.1001     CD =  0.01688   =>   CDf =  0.00793    CDp =  0.00895

 Side 1  free  transition at x/c =  0.4325   65
 Side 2  free  transition at x/c =  0.3714   43

   3   rms: 0.2123E-01   max: -.4304E+00   C at   43  2
       a =  6.000      CL =  0.9555
      Cm = -0.1004     CD =  0.01711   =>   CDf =  0.00774    CDp =  0.00937

 Side 1  free  transition at x/c =  0.4319   65
 Side 2  free  transition at x/c =  0.3833   44

   4   rms: 0.1478E-01   max: -.2592E+00   C at   44  2
       a =  6.000      CL =  0.9556
      Cm = -0.1004     CD =  0.01708   =>   CDf =  0.00772    CDp =  0.00935

 Side 1  free  transition at x/c =  0.4318   65
 Side 2  free  transition at x/c =  0.3935   44

   5   rms: 0.3293E-02   max: 0.7207E-01   C at   44  2
       a =  6.000      CL =  0.9556
      Cm = -0.1004     CD =  0.01709   =>   CDf =  0.00765    CDp =  0.00944

 Side 1  free  transition at x/c =  0.4318   65
 Side 2  free  transition at x/c =  0.3913   44

   6   rms: 0.1611E-04   max: -.2610E-03   D at   45  2
       a =  6.000      CL =  0.9556
      Cm = -0.1004     CD =  0.01709   =>   CDf =  0.00766    CDp =  0.00943

 Point added to stored polar  1
 Point written to save file  000264M0.04.log                                 
 Dump file unspecified or not available
 Calculating wake trajectory ...
 Calculating source influence matrix ...

 Solving BL system ...

 Side 1  free  transition at x/c =  0.4318   65
 Side 2  free  transition at x/c =  0.3913   44

   1   rms: 0.3682E+00   max: -.7185E+01   C at   44  2   RLX: 0.070
       a =  7.000      CL =  0.9646
      Cm = -0.1008     CD =  0.01718   =>   CDf =  0.00767    CDp =  0.00951

 Side 1  free  transition at x/c =  0.4309   64
 Side 2  free  transition at x/c =  0.4063   45

   2   rms: 0.3435E+00   max: -.5999E+01   C at   45  2   RLX: 0.083
       a =  7.000      CL =  0.9731
      Cm = -0.1008     CD =  0.01704   =>   CDf =  0.00747    CDp =  0.00957

 Side 1  free  transition at x/c =  0.4300   65
 Side 2  free  transition at x/c =  0.4284   44

   3   rms: 0.3005E+00   max: -.6107E+01   C at   44  2   RLX: 0.082
       a =  7.000      CL =  0.9807
      Cm = -0.1007     CD =  0.01704   =>   CDf =  0.00750    CDp =  0.00954

 Side 1  free  transition at x/c =  0.4289   65
 Side 2  free  transition at x/c =  0.4554   46

   4   rms: 0.4983E+00   max: -.9799E+01   C at   46  2   RLX: 0.051
       a =  7.000      CL =  0.9857
      Cm = -0.1008     CD =  0.01691   =>   CDf =  0.00737    CDp =  0.00954

 Side 1  free  transition at x/c =  0.4283   65
 Side 2  free  transition at x/c =  0.5099   48

   5   rms: 0.3351E+01   max: -.6954E+02   C at   48  2   RLX: 0.007
       a =  7.000      CL =  0.9862
      Cm = -0.1008     CD =  0.01673   =>   CDf =  0.00710    CDp =  0.00963

 Side 1  free  transition at x/c =  0.4282   65
 Side 2  free  transition at x/c =  0.5307   48

   6   rms: 0.5653E+01   max: -.1062E+03   C at   48  2   RLX: 0.005
       a =  7.000      CL =  0.9865
      Cm = -0.1008     CD =  0.01669   =>   CDf =  0.00703    CDp =  0.00966

 Side 1  free  transition at x/c =  0.4281   65
 Side 2  free  transition at x/c =  0.5500   49

   7   rms: 0.6004E+01   max: -.1147E+03   C at   49  2   RLX: 0.004
       a =  7.000      CL =  0.9868
      Cm = -0.1008     CD =  0.01664   =>   CDf =  0.00697    CDp =  0.00967

 Side 1  free  transition at x/c =  0.4281   65
 Side 2  free  transition at x/c =  0.5732   50

   8   rms: 0.5660E+01   max: -.1097E+03   C at   50  2   RLX: 0.005
       a =  7.000      CL =  0.9869
      Cm = -0.1008     CD =  0.01659   =>   CDf =  0.00690    CDp =  0.00969

 Side 1  free  transition at x/c =  0.4280   65
 Side 2  free  transition at x/c =  0.5993   51

   9   rms: 0.5360E+01   max: -.1034E+03   C at   51  2   RLX: 0.005
       a =  7.000      CL =  0.9869
      Cm = -0.1007     CD =  0.01654   =>   CDf =  0.00681    CDp =  0.00973

 Side 1  free  transition at x/c =  0.4280   65
 Side 2  free  transition at x/c =  0.6272   52

  10   rms: 0.4869E+01   max: -.9362E+02   C at   52  2   RLX: 0.005
       a =  7.000      CL =  0.9867
      Cm = -0.1005     CD =  0.01649   =>   CDf =  0.00673    CDp =  0.00977

 Side 1  free  transition at x/c =  0.4279   65
 Side 2  free  transition at x/c =  0.6514   53

  11   rms: 0.1882E+01   max: -.3682E+02   C at   53  2   RLX: 0.014
       a =  7.000      CL =  0.9869
      Cm = -0.1003     CD =  0.01646   =>   CDf =  0.00666    CDp =  0.00980

 Side 1  free  transition at x/c =  0.4278   65
 Side 2  free  transition at x/c =  0.6956   55

  12   rms: 0.5679E+00   max: -.1096E+02   C at   55  2   RLX: 0.046
       a =  7.000      CL =  0.9876
      Cm = -0.0993     CD =  0.01642   =>   CDf =  0.00652    CDp =  0.00990

 Side 1  free  transition at x/c =  0.4273   65
 Side 2  free  transition at x/c =  0.7297   56

  13   rms: 0.2012E+00   max: 0.2207E+01   C at   56  2   RLX: 0.680
       a =  7.000      CL =  1.0394
      Cm = -0.0990     CD =  0.01671   =>   CDf =  0.00645    CDp =  0.01026

 MRCHDU: Convergence failed at  59  side 2    Res =  0.1238E+01
 MRCHDU: Convergence failed at  60  side 2    Res =  0.1743E+03
 MRCHDU: Convergence failed at  61  side 2    Res =  0.5263E+01
 MRCHDU: Convergence failed at  62  side 2    Res =  0.5211E+01
 MRCHDU: Convergence failed at  63  side 2    Res =  0.7249E+01
 MRCHDU: Convergence failed at  64  side 2    Res =  0.1328E+02
 MRCHDU: Convergence failed at  65  side 2    Res =  0.5932E+02
 MRCHDU: Convergence failed at  66  side 2    Res =  0.3344E+02
 MRCHDU: Convergence failed at  67  side 2    Res =  0.1463E+02
 MRCHDU: Convergence failed at  68  side 2    Res =  0.9718E+01
 MRCHDU: Convergence failed at  69  side 2    Res =  0.6396E+01
 MRCHDU: Convergence failed at  70  side 2    Res =  0.2357E+01
 Side 1  free  transition at x/c =  0.4140   65
 Side 2 forced transition at x/c =  1.0001   70

  14   rms: 0.1149E+00   max: -.1237E+01   C at   70  2   RLX: 0.404
       a =  7.000      CL =  1.0005
      Cm = -0.0771     CD =  0.01613   =>   CDf =  0.00635    CDp =  0.00979

 Side 1  free  transition at x/c =  0.4146   65
 Side 2  free  transition at x/c =  0.9788   69

  15   rms: 0.4022E+00   max: 0.8013E+01   C at   69  2   RLX: 0.187
       a =  7.000      CL =  0.9789
      Cm = -0.0739     CD =  0.01619   =>   CDf =  0.00619    CDp =  0.01001

 Side 1  free  transition at x/c =  0.4161   65
 Side 2  free  transition at x/c =  0.9299   66

  16   rms: 0.1260E+00   max: 0.2036E+01   C at   66  2   RLX: 0.737
       a =  7.000      CL =  1.0112
      Cm = -0.0853     CD =  0.01634   =>   CDf =  0.00614    CDp =  0.01020

 Side 1  free  transition at x/c =  0.4154   65
 Side 2  free  transition at x/c =  0.8725   63

  17   rms: 0.4230E-01   max: 0.4675E+00   D at   65  2
       a =  7.000      CL =  1.0386
      Cm = -0.0922     CD =  0.01652   =>   CDf =  0.00604    CDp =  0.01047

 Side 1  free  transition at x/c =  0.4143   66
 Side 2  free  transition at x/c =  0.8497   61

  18   rms: 0.1629E-01   max: -.2701E+00   D at   61  2
       a =  7.000      CL =  1.0420
      Cm = -0.0931     CD =  0.01646   =>   CDf =  0.00624    CDp =  0.01022

 Side 1  free  transition at x/c =  0.4140   66
 Side 2  free  transition at x/c =  0.8498   61

  19   rms: 0.1663E-02   max: -.3467E-01   D at   63  2
       a =  7.000      CL =  1.0417
      Cm = -0.0930     CD =  0.01645   =>   CDf =  0.00625    CDp =  0.01021

 Side 1  free  transition at x/c =  0.4140   66
 Side 2  free  transition at x/c =  0.8493   61

  20   rms: 0.5430E-04   max: -.1264E-02   D at   63  2
       a =  7.000      CL =  1.0417
      Cm = -0.0930     CD =  0.01645   =>   CDf =  0.00625    CDp =  0.01020

 Point added to stored polar  1
 Point written to save file  000264M0.04.log                                 
 Dump file unspecified or not available
 Calculating wake trajectory ...
 Calculating source influence matrix ...

 Solving BL system ...

 Side 1  free  transition at x/c =  0.4140   66
 Side 2  free  transition at x/c =  0.8493   61

   1   rms: 0.1587E+00   max: 0.9090E+00   D at   62  2   RLX: 0.573
       a =  8.000      CL =  1.0878
      Cm = -0.0875     CD =  0.01684   =>   CDf =  0.00626    CDp =  0.01058

 MRCHDU: Convergence failed at  66  side 1    Res =  0.2023E+01
 MRCHDU: Convergence failed at  67  side 1    Res =  0.3169E+01
 MRCHDU: Convergence failed at  68  side 1    Res =  0.2531E+01
 MRCHDU: Convergence failed at  69  side 1    Res =  0.2810E+01
 MRCHDU: Convergence failed at  70  side 1    Res =  0.2439E+01
 MRCHDU: Convergence failed at  71  side 1    Res =  0.3260E+01
 MRCHDU: Convergence failed at  72  side 1    Res =  0.4476E+01
 MRCHDU: Convergence failed at  73  side 1    Res =  0.5829E+01
 MRCHDU: Convergence failed at  74  side 1    Res =  0.6793E+01
 MRCHDU: Convergence failed at  75  side 1    Res =  0.6956E+01
 MRCHDU: Convergence failed at  76  side 1    Res =  0.7166E+01
 MRCHDU: Convergence failed at  77  side 1    Res =  0.6630E+01
 MRCHDU: Convergence failed at  78  side 1    Res =  0.5675E+01
 MRCHDU: Convergence failed at  79  side 1    Res =  0.8315E+02
 MRCHDU: Convergence failed at  80  side 1    Res =  0.1032E+02
 MRCHDU: Convergence failed at  81  side 1    Res =  0.1114E+02
 MRCHDU: Convergence failed at  82  side 1    Res =  0.3384E+02
 MRCHDU: Convergence failed at  83  side 1    Res =  0.2724E+02
 MRCHDU: Convergence failed at  84  side 1    Res =  0.5925E+03
 MRCHDU: Convergence failed at  85  side 1    Res =  0.4116E+02
 MRCHDU: Convergence failed at  86  side 1    Res =  0.1336E+02
 MRCHDU: Convergence failed at  87  side 1    Res =  0.3974E+02
 MRCHDU: Convergence failed at  88  side 1    Res =  0.2066E+02
 MRCHDU: Convergence failed at  89  side 1    Res =  0.5425E+02
 MRCHDU: Convergence failed at  90  side 1    Res =  0.2535E+02
 MRCHDU: Convergence failed at  91  side 1    Res =  0.1665E+02
 MRCHDU: Convergence failed at  92  side 1    Res =  0.4297E+02
 MRCHDU: Convergence failed at  93  side 1    Res =  0.2771E+03
 Side 1  free  transition at x/c =  0.4054   65
 Side 2  free  transition at x/c =  0.8738   62

   2   rms: 0.8078E+00   max: 0.4046E+01   D at   93  1   RLX: 0.371
       a =  8.000      CL =  1.4255
      Cm = -0.2771     CD =  0.00692   =>   CDf =  0.00370    CDp =  0.00322

 MRCHDU: Convergence failed at  80  side 1    Res =  0.5855E-03
 MRCHDU: Convergence failed at  71  side 2    Res =  0.2791E+01
 MRCHDU: Convergence failed at  72  side 2    Res =  0.5160E+01
 MRCHDU: Convergence failed at  73  side 2    Res =  0.7287E+01
 MRCHDU: Convergence failed at  74  side 2    Res =  0.5502E+01
 MRCHDU: Convergence failed at  75  side 2    Res =  0.2862E+01
 MRCHDU: Convergence failed at  76  side 2    Res =  0.2840E+01
 Side 1  free  transition at x/c =  0.3857   64
 Side 2  free  transition at x/c =  0.8872   63

   3   rms: 0.2752E+00   max: -.9241E+00   T at   63  2   RLX: 0.476
       a =  8.000      CL =  1.1256
      Cm = -0.1285     CD =  0.02293   =>   CDf =  0.00462    CDp =  0.01831

 MRCHDU: Convergence failed at  80  side 1    Res =  0.1244E+00
 MRCHDU: Convergence failed at  81  side 1    Res =  0.2495E+00
 Side 1  free  transition at x/c =  0.4026   65
 Side 2  free  transition at x/c =  0.8939   63

   4   rms: 0.1154E+01   max: -.7071E+01   D at   82  1   RLX: 0.071
       a =  8.000      CL =  1.0785
      Cm = -0.0961     CD =  0.01819   =>   CDf =  0.00485    CDp =  0.01334

 Side 1  free  transition at x/c =  0.4080   65
 Side 2  free  transition at x/c =  0.8959   63

   5   rms: 0.3429E+01   max: -.2468E+02   D at   82  1   RLX: 0.020
       a =  8.000      CL =  1.0702
      Cm = -0.0904     CD =  0.01690   =>   CDf =  0.00537    CDp =  0.01153

 MRCHDU: Convergence failed at  82  side 1    Res =  0.5558E-01
 Side 1  free  transition at x/c =  0.4112   65
 Side 2  free  transition at x/c =  0.8958   63

   6   rms: 0.9489E+01   max: -.7301E+02   D at   82  1   RLX: 0.007
       a =  8.000      CL =  1.0687
      Cm = -0.0895     CD =  0.01663   =>   CDf =  0.00572    CDp =  0.01091

 MRCHDU: Convergence failed at  82  side 1    Res =  0.6403E-01
 Side 1  free  transition at x/c =  0.4170   66
 Side 2  free  transition at x/c =  0.8954   63

   7   rms: 0.7737E+00   max: -.4706E+01   D at   82  1   RLX: 0.106
       a =  8.000      CL =  1.0895
      Cm = -0.0931     CD =  0.01489   =>   CDf =  0.00582    CDp =  0.00907

 MRCHDU: Convergence failed at  82  side 1    Res =  0.4785E-01
 Side 1  free  transition at x/c =  0.4203   66
 Side 2  free  transition at x/c =  0.8975   63

   8   rms: 0.2925E+00   max: -.1933E+01   D at   77  1   RLX: 0.259
       a =  8.000      CL =  1.1038
      Cm = -0.0920     CD =  0.01473   =>   CDf =  0.00607    CDp =  0.00866

 MRCHDU: Convergence failed at  82  side 1    Res =  0.6549E-02
 Side 1  free  transition at x/c =  0.4161   66
 Side 2  free  transition at x/c =  0.9020   63

   9   rms: 0.2144E+00   max: -.1210E+01   D at   79  1   RLX: 0.413
       a =  8.000      CL =  1.1119
      Cm = -0.0882     CD =  0.01585   =>   CDf =  0.00614    CDp =  0.00971

 Side 1  free  transition at x/c =  0.4094   66
 Side 2  free  transition at x/c =  0.9070   63

  10   rms: 0.1490E+00   max: 0.8813E+00   D at   83  1   RLX: 0.612
       a =  8.000      CL =  1.1074
      Cm = -0.0829     CD =  0.01657   =>   CDf =  0.00622    CDp =  0.01035

 Side 1  free  transition at x/c =  0.4011   66
 Side 2  free  transition at x/c =  0.9086   63

  11   rms: 0.9678E-01   max: -.5620E+00   D at   82  1   RLX: 0.890
       a =  8.000      CL =  1.1550
      Cm = -0.0903     CD =  0.01628   =>   CDf =  0.00602    CDp =  0.01026

 Side 1  free  transition at x/c =  0.3933   66
 Side 2  free  transition at x/c =  0.9090   63

  12   rms: 0.3459E-01   max: -.3332E+00   D at   91  1
       a =  8.000      CL =  1.1347
      Cm = -0.0866     CD =  0.01656   =>   CDf =  0.00620    CDp =  0.01036

 Side 1  free  transition at x/c =  0.3948   66
 Side 2  free  transition at x/c =  0.9072   63

  13   rms: 0.1579E-01   max: -.1422E+00   D at   91  1
       a =  8.000      CL =  1.1201
      Cm = -0.0840     CD =  0.01668   =>   CDf =  0.00613    CDp =  0.01055

 Side 1  free  transition at x/c =  0.3956   66
 Side 2  free  transition at x/c =  0.9070   63

  14   rms: 0.1426E-02   max: -.2021E-01   D at   91  1
       a =  8.000      CL =  1.1193
      Cm = -0.0839     CD =  0.01670   =>   CDf =  0.00610    CDp =  0.01060

 Side 1  free  transition at x/c =  0.3956   66
 Side 2  free  transition at x/c =  0.9070   63

  15   rms: 0.2360E-04   max: -.3577E-03   D at   91  1
       a =  8.000      CL =  1.1193
      Cm = -0.0838     CD =  0.01670   =>   CDf =  0.00609    CDp =  0.01060

 Point added to stored polar  1
 Point written to save file  000264M0.04.log                                 
 Dump file unspecified or not available
 Calculating wake trajectory ...
 Calculating source influence matrix ...

 Solving BL system ...

 Side 1  free  transition at x/c =  0.3956   66
 Side 2  free  transition at x/c =  0.9070   63

   1   rms: 0.1346E+00   max: -.1032E+01   T at   63  2   RLX: 0.485
       a =  9.000      CL =  1.1495
      Cm = -0.0777     CD =  0.01668   =>   CDf =  0.00610    CDp =  0.01057

 Side 1  free  transition at x/c =  0.3876   65
 Side 2  free  transition at x/c =  0.9249   64

   2   rms: 0.9635E-01   max: -.1203E+01   T at   64  2   RLX: 0.416
       a =  9.000      CL =  1.1593
      Cm = -0.0754     CD =  0.01680   =>   CDf =  0.00590    CDp =  0.01090

 Side 1  free  transition at x/c =  0.3826   66
 Side 2  free  transition at x/c =  0.9367   63

   3   rms: 0.6020E-01   max: -.4916E+00   D at   63  2
       a =  9.000      CL =  1.1945
      Cm = -0.0751     CD =  0.01688   =>   CDf =  0.00596    CDp =  0.01092

 MRCHDU: Convergence failed at  65  side 2    Res =  0.7467E+01
 MRCHDU: Convergence failed at  66  side 2    Res =  0.2067E+01
 Side 1  free  transition at x/c =  0.3739   65
 Side 2  free  transition at x/c =  0.9632   65

   4   rms: 0.3704E-01   max: -.4602E+00   D at   66  2
       a =  9.000      CL =  1.1904
      Cm = -0.0738     CD =  0.01677   =>   CDf =  0.00602    CDp =  0.01074

 Side 1  free  transition at x/c =  0.3756   66
 Side 2  free  transition at x/c =  0.9585   65

   5   rms: 0.1153E-01   max: -.1293E+00   C at   65  2
       a =  9.000      CL =  1.1813
      Cm = -0.0720     CD =  0.01663   =>   CDf =  0.00598    CDp =  0.01065

 Side 1  free  transition at x/c =  0.3760   66
 Side 2  free  transition at x/c =  0.9625   65

   6   rms: 0.5395E-03   max: -.5169E-02   D at   65  2
       a =  9.000      CL =  1.1817
      Cm = -0.0721     CD =  0.01663   =>   CDf =  0.00596    CDp =  0.01067

 Side 1  free  transition at x/c =  0.3759   66
 Side 2  free  transition at x/c =  0.9623   65

   7   rms: 0.3572E-05   max: -.2017E-04   D at   65  2
       a =  9.000      CL =  1.1817
      Cm = -0.0721     CD =  0.01663   =>   CDf =  0.00596    CDp =  0.01067

 Point added to stored polar  1
 Point written to save file  000264M0.04.log                                 
 Dump file unspecified or not available
 Calculating wake trajectory ...
 Calculating source influence matrix ...

 Solving BL system ...

 Side 1  free  transition at x/c =  0.3759   66
 Side 2  free  transition at x/c =  0.9623   65

   1   rms: 0.1528E+00   max: -.1539E+01   C at   65  2   RLX: 0.325
       a = 10.000      CL =  1.2080
      Cm = -0.0696     CD =  0.01671   =>   CDf =  0.00597    CDp =  0.01073

 Side 1  free  transition at x/c =  0.3688   65
 Side 2  free  transition at x/c =  0.9833   66

   2   rms: 0.1816E+00   max: -.3254E+01   C at   66  2   RLX: 0.154
       a = 10.000      CL =  1.2207
      Cm = -0.0704     CD =  0.01677   =>   CDf =  0.00579    CDp =  0.01098

 Side 1  free  transition at x/c =  0.3652   66
 Side 2  free  transition at x/c =  0.9883   66

   3   rms: 0.1260E+00   max: -.2140E+01   C at   66  2   RLX: 0.234
       a = 10.000      CL =  1.2386
      Cm = -0.0710     CD =  0.01686   =>   CDf =  0.00586    CDp =  0.01100

 Side 1  free  transition at x/c =  0.3601   66
 Side 2 forced transition at x/c =  1.0001   66

   4   rms: 0.7484E-01   max: -.8692E+00   C at   66  2   RLX: 0.575
       a = 10.000      CL =  1.2594
      Cm = -0.0696     CD =  0.01694   =>   CDf =  0.00586    CDp =  0.01107

 Side 1  free  transition at x/c =  0.3534   65
 Side 2 forced transition at x/c =  1.0001   66

   5   rms: 0.2959E-01   max: -.2247E+00   D at   65  2
       a = 10.000      CL =  1.2743
      Cm = -0.0685     CD =  0.01705   =>   CDf =  0.00588    CDp =  0.01116

 Side 1  free  transition at x/c =  0.3448   65
 Side 2 forced transition at x/c =  1.0001   66

   6   rms: 0.4755E-02   max: 0.4922E-01   C at   66  2
       a = 10.000      CL =  1.2739
      Cm = -0.0684     CD =  0.01706   =>   CDf =  0.00584    CDp =  0.01122

 Side 1  free  transition at x/c =  0.3459   65
 Side 2 forced transition at x/c =  1.0001   66

   7   rms: 0.2626E-03   max: 0.2255E-02   C at   66  2
       a = 10.000      CL =  1.2740
      Cm = -0.0684     CD =  0.01706   =>   CDf =  0.00581    CDp =  0.01125

 Side 1  free  transition at x/c =  0.3459   65
 Side 2 forced transition at x/c =  1.0001   66

   8   rms: 0.3220E-05   max: 0.2066E-04   C at   66  2
       a = 10.000      CL =  1.2740
      Cm = -0.0684     CD =  0.01706   =>   CDf =  0.00581    CDp =  0.01125

 Point added to stored polar  1
 Point written to save file  000264M0.04.log                                 
 Dump file unspecified or not available
 Calculating wake trajectory ...
 Calculating source influence matrix ...

 Solving BL system ...

 Side 1  free  transition at x/c =  0.3459   65
 Side 2 forced transition at x/c =  1.0001   66

   1   rms: 0.1496E+00   max: -.1141E+01   C at   66  2   RLX: 0.438
       a = 11.000      CL =  1.3104
      Cm = -0.0663     CD =  0.01747   =>   CDf =  0.00569    CDp =  0.01178

 Side 1  free  transition at x/c =  0.3258   65
 Side 2 forced transition at x/c =  1.0001   65

   2   rms: 0.8717E-01   max: -.6087E+00   D at   65  1   RLX: 0.821
       a = 11.000      CL =  1.3417
      Cm = -0.0631     CD =  0.01820   =>   CDf =  0.00587    CDp =  0.01233

 Side 1  free  transition at x/c =  0.2918   63
 Side 2 forced transition at x/c =  1.0001   65

   3   rms: 0.2981E-01   max: -.3327E+00   D at   65  1
       a = 11.000      CL =  1.3375
      Cm = -0.0612     CD =  0.01905   =>   CDf =  0.00593    CDp =  0.01312

 Side 1  free  transition at x/c =  0.2736   61
 Side 2 forced transition at x/c =  1.0001   65

   4   rms: 0.5469E-02   max: -.5888E-01   D at   63  1
       a = 11.000      CL =  1.3369
      Cm = -0.0612     CD =  0.01908   =>   CDf =  0.00602    CDp =  0.01306

 Side 1  free  transition at x/c =  0.2694   61
 Side 2 forced transition at x/c =  1.0001   65

   5   rms: 0.7635E-03   max: -.1286E-01   C at   61  1
       a = 11.000      CL =  1.3365
      Cm = -0.0611     CD =  0.01910   =>   CDf =  0.00603    CDp =  0.01307

 Side 1  free  transition at x/c =  0.2698   61
 Side 2 forced transition at x/c =  1.0001   65

   6   rms: 0.2544E-05   max: -.1907E-04   C at   61  1
       a = 11.000      CL =  1.3365
      Cm = -0.0611     CD =  0.01910   =>   CDf =  0.00603    CDp =  0.01307

 Point added to stored polar  1
 Point written to save file  000264M0.04.log                                 
 Dump file unspecified or not available
 Calculating wake trajectory ...
 Calculating source influence matrix ...

 Solving BL system ...

 Side 1  free  transition at x/c =  0.2698   61
 Side 2 forced transition at x/c =  1.0001   65

   1   rms: 0.2662E+00   max: 0.3948E+01   C at   61  1   RLX: 0.338
       a = 12.000      CL =  1.3406
      Cm = -0.0569     CD =  0.02082   =>   CDf =  0.00587    CDp =  0.01495

 Side 1  free  transition at x/c =  0.0868   47
 Side 2 forced transition at x/c =  1.0001   64

   2   rms: 0.1698E+00   max: 0.9232E+00   C at   47  1   RLX: 0.566
       a = 12.000      CL =  1.2951
      Cm = -0.0540     CD =  0.02762   =>   CDf =  0.00746    CDp =  0.02016

 Side 1  free  transition at x/c =  0.0794   46
 Side 2 forced transition at x/c =  1.0001   64

   3   rms: 0.8584E-01   max: 0.4359E+00   D at   90  1
       a = 12.000      CL =  1.2392
      Cm = -0.0450     CD =  0.03349   =>   CDf =  0.00734    CDp =  0.02616

 Side 1  free  transition at x/c =  0.0811   46
 Side 2 forced transition at x/c =  1.0001   64

   4   rms: 0.1377E-01   max: 0.1286E+00   D at   85  1
       a = 12.000      CL =  1.2373
      Cm = -0.0457     CD =  0.03398   =>   CDf =  0.00710    CDp =  0.02688

 Side 1  free  transition at x/c =  0.0824   46
 Side 2 forced transition at x/c =  1.0001   64

   5   rms: 0.9963E-03   max: 0.1925E-01   D at   84  1
       a = 12.000      CL =  1.2374
      Cm = -0.0457     CD =  0.03392   =>   CDf =  0.00704    CDp =  0.02688

 Side 1  free  transition at x/c =  0.0824   46
 Side 2 forced transition at x/c =  1.0001   64

   6   rms: 0.3318E-04   max: 0.5047E-03   D at    2  1
       a = 12.000      CL =  1.2374
      Cm = -0.0457     CD =  0.03392   =>   CDf =  0.00704    CDp =  0.02688

 Point added to stored polar  1
 Point written to save file  000264M0.04.log                                 
 Dump file unspecified or not available
 Calculating wake trajectory ...
 Calculating source influence matrix ...

 Solving BL system ...

 Side 1  free  transition at x/c =  0.0824   46
 Side 2 forced transition at x/c =  1.0001   64

   1   rms: 0.3263E+00   max: 0.4762E+01   C at   46  1   RLX: 0.315
       a = 13.000      CL =  1.2192
      Cm = -0.0457     CD =  0.04002   =>   CDf =  0.00706    CDp =  0.03296

 Side 1  free  transition at x/c =  0.0696   44
 Side 2 forced transition at x/c =  1.0001   64

   2   rms: 0.1418E+00   max: 0.8858E+00   C at   44  1
       a = 13.000      CL =  1.2049
      Cm = -0.0471     CD =  0.05145   =>   CDf =  0.00708    CDp =  0.04437

 Side 1  free  transition at x/c =  0.0560   42
 Side 2 forced transition at x/c =  1.0001   64

   3   rms: 0.3921E-01   max: 0.3261E+00   D at   78  1
       a = 13.000      CL =  1.1899
      Cm = -0.0471     CD =  0.05233   =>   CDf =  0.00707    CDp =  0.04526

 Side 1  free  transition at x/c =  0.0592   43
 Side 2 forced transition at x/c =  1.0001   64

   4   rms: 0.5858E-02   max: -.1045E+00   D at   42  1
       a = 13.000      CL =  1.1916
      Cm = -0.0468     CD =  0.05160   =>   CDf =  0.00689    CDp =  0.04471

 Side 1  free  transition at x/c =  0.0589   43
 Side 2 forced transition at x/c =  1.0001   64

   5   rms: 0.8864E-03   max: 0.1048E-01   C at   43  1
       a = 13.000      CL =  1.1917
      Cm = -0.0468     CD =  0.05159   =>   CDf =  0.00687    CDp =  0.04472

 Side 1  free  transition at x/c =  0.0588   43
 Side 2 forced transition at x/c =  1.0001   64

   6   rms: 0.3915E-04   max: 0.2367E-03   D at   76  1
       a = 13.000      CL =  1.1917
      Cm = -0.0468     CD =  0.05160   =>   CDf =  0.00688    CDp =  0.04472

 Point added to stored polar  1
 Point written to save file  000264M0.04.log                                 
 Dump file unspecified or not available
 Calculating wake trajectory ...
 Calculating source influence matrix ...

 Solving BL system ...

 Side 1  free  transition at x/c =  0.0588   43
 Side 2 forced transition at x/c =  1.0001   64

   1   rms: 0.1765E+00   max: 0.7956E+00   D at   75  1   RLX: 0.470
       a = 14.000      CL =  1.1722
      Cm = -0.0480     CD =  0.06108   =>   CDf =  0.00690    CDp =  0.05418

 Side 1  free  transition at x/c =  0.0548   42
 Side 2 forced transition at x/c =  1.0001   64

   2   rms: 0.7056E-01   max: 0.3587E+00   D at   74  1
       a = 14.000      CL =  1.1745
      Cm = -0.0482     CD =  0.06752   =>   CDf =  0.00676    CDp =  0.06076

 Side 1  free  transition at x/c =  0.0497   41
 Side 2 forced transition at x/c =  1.0001   64

   3   rms: 0.2621E-01   max: -.2044E+00   D at   41  1
       a = 14.000      CL =  1.1588
      Cm = -0.0485     CD =  0.06867   =>   CDf =  0.00674    CDp =  0.06193

 Side 1  free  transition at x/c =  0.0507   41
 Side 2 forced transition at x/c =  1.0001   64

   4   rms: 0.3708E-02   max: -.2930E-01   D at   73  1
       a = 14.000      CL =  1.1607
      Cm = -0.0482     CD =  0.06791   =>   CDf =  0.00663    CDp =  0.06128

 Side 1  free  transition at x/c =  0.0505   41
 Side 2 forced transition at x/c =  1.0001   64

   5   rms: 0.2072E-03   max: -.1181E-02   D at   76  2
       a = 14.000      CL =  1.1609
      Cm = -0.0482     CD =  0.06797   =>   CDf =  0.00665    CDp =  0.06132

 Side 1  free  transition at x/c =  0.0505   41
 Side 2 forced transition at x/c =  1.0001   64

   6   rms: 0.3097E-05   max: 0.2950E-04   C at   64  2
       a = 14.000      CL =  1.1609
      Cm = -0.0482     CD =  0.06797   =>   CDf =  0.00665    CDp =  0.06133

 Point added to stored polar  1
 Point written to save file  000264M0.04.log                                 
 Dump file unspecified or not available
 Calculating wake trajectory ...
 Calculating source influence matrix ...

 Solving BL system ...

 Side 1  free  transition at x/c =  0.0505   41
 Side 2 forced transition at x/c =  1.0001   64

   1   rms: 0.1215E+00   max: 0.5310E+00   D at   71  1   RLX: 0.422
       a = 15.000      CL =  1.1578
      Cm = -0.0492     CD =  0.07512   =>   CDf =  0.00641    CDp =  0.06872

 Side 1  free  transition at x/c =  0.0474   42
 Side 2 forced transition at x/c =  1.0001   63

   2   rms: 0.7490E-01   max: 0.3716E+00   D at   72  1
       a = 15.000      CL =  1.1394
      Cm = -0.0507     CD =  0.08608   =>   CDf =  0.00667    CDp =  0.07942

 Side 1  free  transition at x/c =  0.0455   41
 Side 2 forced transition at x/c =  1.0001   63

   3   rms: 0.1342E-01   max: -.1557E+00   D at   41  1
       a = 15.000      CL =  1.1484
      Cm = -0.0501     CD =  0.08297   =>   CDf =  0.00651    CDp =  0.07646

 Side 1  free  transition at x/c =  0.0448   41
 Side 2 forced transition at x/c =  1.0001   63

   4   rms: 0.1023E-02   max: -.8802E-02   D at   41  1
       a = 15.000      CL =  1.1488
      Cm = -0.0501     CD =  0.08294   =>   CDf =  0.00650    CDp =  0.07645

 Side 1  free  transition at x/c =  0.0448   41
 Side 2 forced transition at x/c =  1.0001   63

   5   rms: 0.1224E-03   max: -.4958E-03   D at   71  1
       a = 15.000      CL =  1.1489
      Cm = -0.0501     CD =  0.08295   =>   CDf =  0.00650    CDp =  0.07645

 Side 1  free  transition at x/c =  0.0448   41
 Side 2 forced transition at x/c =  1.0001   63

   6   rms: 0.5272E-05   max: -.3494E-04   D at   76  2
       a = 15.000      CL =  1.1489
      Cm = -0.0501     CD =  0.08295   =>   CDf =  0.00650    CDp =  0.07646

 Point added to stored polar  1
 Point written to save file  000264M0.04.log                                 
 Dump file unspecified or not available

.OPERva   c>  
 XFOIL   c>  
0.1
resp: 
 ===================================================
  XFOIL Version 6.97
  Copyright (C) 2000   Mark Drela, Harold Youngren

  This software comes with ABSOLUTELY NO WARRANTY,
    subject to the GNU General Public License.

  Caveat computor
 ===================================================

 File  xfoil.def  not found

   QUIT    Exit program

  .OPER    Direct operating point(s)
  .MDES    Complex mapping design routine
  .QDES    Surface speed design routine
  .GDES    Geometry design routine

   SAVE f  Write airfoil to labeled coordinate file
   PSAV f  Write airfoil to plain coordinate file
   ISAV f  Write airfoil to ISES coordinate file
   MSAV f  Write airfoil to MSES coordinate file
   REVE    Reverse written-airfoil node ordering
   DELI i  Change written-airfoil file delimiters

   LOAD f  Read buffer airfoil from coordinate file
   NACA i  Set NACA 4,5-digit airfoil and buffer airfoil
   INTE    Set buffer airfoil by interpolating two airfoils
   NORM    Buffer airfoil normalization toggle
   HALF    Halve the number of points in buffer airfoil
   XYCM rr Change CM reference location, currently  0.25000 0.00000

   BEND    Display structural properties of current airfoil

   PCOP    Set current-airfoil panel nodes directly from buffer airfoil points
   PANE    Set current-airfoil panel nodes ( 160 ) based on curvature
  .PPAR    Show/change paneling

  .PLOP    Plotting options

   WDEF f  Write  current-settings file
   RDEF f  Reread current-settings file
   NAME s  Specify new airfoil name
   NINC    Increment name version number

   Z       Zoom    | (available in all menus)
   U       Unzoom  | 

 XFOIL   c>   ...............................................

  G raphics-enable flag:        T
  S ize of plot object          10.00"
  A spect ratio of plot object   0.5500
  P age dimensions              11.00 x  8.50"
  M argins from page edges       0.00",  0.00"
  F ont size (relative)          0.0150
  W indow/screen size fraction   0.8000
  B lowup input method:        Cursor    
  O rientation of plot:        Landscape 
  C olor PostScript output?     F

      Option, Value   (or <Return>)    c>   ...............................................

  G raphics-enable flag:        F
  S ize of plot object          10.00"
  A spect ratio of plot object   0.5500
  P age dimensions              11.00 x  8.50"
  M argins from page edges       0.00",  0.00"
  F ont size (relative)          0.0150
  W indow/screen size fraction   0.8000
  B lowup input method:        Cursor    
  O rientation of plot:        Landscape 
  C olor PostScript output?     F

      Option, Value   (or <Return>)    c>  
 XFOIL   c>  
 Labeled airfoil file.  Name:  000264                                          

 Number of input coordinate points: 200
 Clockwise ordering
 Max thickness =     0.208854  at x =   0.232
 Max camber    =     0.020239  at x =   0.437

  LE  x,y  =  -0.00002  -0.00160  |   Chord =   0.99990
  TE  x,y  =   0.99988   0.00006  |

 Current airfoil nodes set from buffer airfoil nodes ( 200 )

 XFOIL   c>  
 You are working with the buffer airfoil

.GDES   c>  
  i       x        y      angle
   2   0.9990   0.0004    0.068
   3   0.9978   0.0010    0.251
   4   0.9961   0.0017    0.221
   5   0.9938   0.0027    0.305
   6   0.9911   0.0039    0.374
   7   0.9880   0.0052    0.404
   8   0.9843   0.0067    0.473
   9   0.9801   0.0084    0.518
  10   0.9755   0.0102    0.553
  11   0.9704   0.0121    0.591
  12   0.9649   0.0141    0.615
  13   0.9589   0.0163    0.655
  14   0.9524   0.0185    0.668
  15   0.9455   0.0208    0.684
  16   0.9382   0.0231    0.685
  17   0.9304   0.0255    0.694
  18   0.9222   0.0279    0.684
  19   0.9135   0.0303    0.670
  20   0.9045   0.0327    0.658
  21   0.8951   0.0350    0.632
  22   0.8853   0.0374    0.605
  23   0.8751   0.0398    0.564
  24   0.8645   0.0421    0.531
  25   0.8536   0.0444    0.488
  26   0.8423   0.0466    0.447
  27   0.8307   0.0489    0.393
  28   0.8187   0.0511    0.355
  29   0.8065   0.0533    0.298
  30   0.7939   0.0555    0.258
  31   0.7810   0.0577    0.209
  32   0.7679   0.0599    0.161
  33   0.7545   0.0620    0.127
  34   0.7409   0.0642    0.090
  35   0.7270   0.0664    0.049
  36   0.7129   0.0687    0.025
  37   0.6986   0.0709    0.004
  38   0.6841   0.0732   -0.013
  39   0.6694   0.0756   -0.028
  40   0.6545   0.0779   -0.030
  41   0.6395   0.0803   -0.022
  42   0.6243   0.0827   -0.020
  43   0.6091   0.0851    0.001
  44   0.5937   0.0876    0.025
  45   0.5782   0.0901    0.051
  46   0.5627   0.0925    0.093
  47   0.5471   0.0950    0.136
  48   0.5314   0.0974    0.181
  49   0.5157   0.0998    0.236
  50   0.5000   0.1021    0.297
  51   0.4843   0.1043    0.361
  52   0.4686   0.1064    0.431
  53   0.4529   0.1084    0.499
  54   0.4373   0.1103    0.577
  55   0.4218   0.1119    0.648
  56   0.4063   0.1134    0.728
  57   0.3909   0.1147    0.801
  58   0.3757   0.1158    0.879
  59   0.3605   0.1166    0.950
  60   0.3455   0.1172    1.022
  61   0.3306   0.1175    1.090
  62   0.3159   0.1175    1.148
  63   0.3014   0.1173    1.206
  64   0.2871   0.1167    1.262
  65   0.2730   0.1158    1.292
  66   0.2591   0.1146    1.336
  67   0.2455   0.1132    1.359
  68   0.2321   0.1114    1.375
  69   0.2190   0.1093    1.389
  70   0.2061   0.1070    1.383
  71   0.1935   0.1044    1.385
  72   0.1813   0.1016    1.362
  73   0.1693   0.0985    1.351
  74   0.1577   0.0952    1.321
  75   0.1464   0.0917    1.293
  76   0.1355   0.0881    1.256
  77   0.1249   0.0843    1.238
  78   0.1147   0.0804    1.192
  79   0.1049   0.0764    1.172
  80   0.0955   0.0724    1.141
  81   0.0865   0.0683    1.125
  82   0.0778   0.0642    1.127
  83   0.0696   0.0601    1.125
  84   0.0618   0.0560    1.150
  85   0.0545   0.0519    1.190
  86   0.0476   0.0479    1.269
  87   0.0411   0.0440    1.360
  88   0.0351   0.0401    1.515
  89   0.0296   0.0363    1.695
  90   0.0245   0.0326    1.974
  91   0.0199   0.0290    2.293
  92   0.0157   0.0255    2.769
  93   0.0120   0.0221    3.297
  94   0.0089   0.0188    4.041
  95   0.0062   0.0155    4.908
  96   0.0039   0.0123    5.937
  97   0.0022   0.0092    7.087
  98   0.0010   0.0061    8.145
  99   0.0002   0.0030    8.960
 100   0.0000   0.0000    6.448
 101   0.0002  -0.0078    3.630
 102   0.0010  -0.0156    3.682
 103   0.0022  -0.0233    3.775
 104   0.0039  -0.0308    3.882
 105   0.0062  -0.0381    4.024
 106   0.0089  -0.0452    4.193
 107   0.0120  -0.0521    4.345
 108   0.0157  -0.0586    4.514
 109   0.0199  -0.0648    4.659
 110   0.0245  -0.0706    4.761
 111   0.0296  -0.0760    4.805
 112   0.0351  -0.0810    4.814
 113   0.0411  -0.0855    4.715
 114   0.0476  -0.0896    4.589
 115   0.0545  -0.0933    4.360
 116   0.0618  -0.0965    4.097
 117   0.0696  -0.0992    3.799
 118   0.0778  -0.1015    3.463
 119   0.0865  -0.1033    3.122
 120   0.0955  -0.1047    2.798
 121   0.1049  -0.1058    2.468
 122   0.1147  -0.1064    2.155
 123   0.1249  -0.1067    1.869
 124   0.1355  -0.1066    1.598
 125   0.1464  -0.1062    1.350
 126   0.1577  -0.1056    1.122
 127   0.1693  -0.1047    0.933
 128   0.1813  -0.1036    0.739
 129   0.1935  -0.1023    0.580
 130   0.2061  -0.1008    0.440
 131   0.2190  -0.0992    0.315
 132   0.2321  -0.0975    0.205
 133   0.2455  -0.0957    0.113
 134   0.2591  -0.0939    0.035
 135   0.2730  -0.0920   -0.029
 136   0.2871  -0.0901   -0.077
 137   0.3014  -0.0881   -0.114
 138   0.3159  -0.0862   -0.138
 139   0.3306  -0.0843   -0.162
 140   0.3455  -0.0824   -0.158
 141   0.3605  -0.0805   -0.161
 142   0.3757  -0.0787   -0.151
 143   0.3909  -0.0769   -0.128
 144   0.4063  -0.0751   -0.109
 145   0.4218  -0.0733   -0.079
 146   0.4373  -0.0716   -0.055
 147   0.4529  -0.0698   -0.011
 148   0.4686  -0.0681    0.020
 149   0.4843  -0.0663    0.055
 150   0.5000  -0.0645    0.090
 151   0.5157  -0.0627    0.121
 152   0.5314  -0.0609    0.161
 153   0.5471  -0.0590    0.179
 154   0.5627  -0.0571    0.210
 155   0.5782  -0.0551    0.232
 156   0.5937  -0.0531    0.246
 157   0.6091  -0.0510    0.256
 158   0.6243  -0.0489    0.260
 159   0.6395  -0.0467    0.262
 160   0.6545  -0.0445    0.254
 161   0.6694  -0.0422    0.243
 162   0.6841  -0.0398    0.226
 163   0.6986  -0.0375    0.202
 164   0.7129  -0.0351    0.178
 165   0.7270  -0.0327    0.139
 166   0.7409  -0.0304    0.105
 167   0.7545  -0.0280    0.065
 168   0.7679  -0.0257    0.012
 169   0.7810  -0.0234   -0.024
 170   0.7939  -0.0211   -0.082
 171   0.8065  -0.0190   -0.130
 172   0.8187  -0.0169   -0.180
 173   0.8307  -0.0149   -0.243
 174   0.8423  -0.0130   -0.281
 175   0.8536  -0.0112   -0.338
 176   0.8645  -0.0096   -0.390
 177   0.8751  -0.0080   -0.437
 178   0.8853  -0.0066   -0.476
 179   0.8951  -0.0054   -0.519
 180   0.9045  -0.0042   -0.548
 181   0.9135  -0.0033   -0.587
 182   0.9222  -0.0024   -0.606
 183   0.9304  -0.0017   -0.624
 184   0.9382  -0.0011   -0.632
 185   0.9455  -0.0006   -0.651
 186   0.9524  -0.0002   -0.631
 187   0.9589   0.0001   -0.629
 188   0.9649   0.0003   -0.617
 189   0.9704   0.0004   -0.581
 190   0.9755   0.0005   -0.574
 191   0.9801   0.0005   -0.511
 192   0.9843   0.0005   -0.488
 193   0.9880   0.0004   -0.437
 194   0.9911   0.0003   -0.385
 195   0.9938   0.0002   -0.321
 196   0.9961   0.0002   -0.240
 197   0.9978   0.0001   -0.251
 198   0.9990   0.0000   -0.044
 199   0.9998   0.0000   -0.228

 Maximum panel corner angle =  8.960   at  i,x,y  =  99   0.0002   0.0030

 Enter corner angle criterion for refinement (deg):   4.480
 Enter type of spline parameter (1=uniform, 2=arclength):   1
 Enter refinement x limits:  -0.10000   1.10000
 Number of points added:           26
 Max thickness =     0.208901  at x =   0.232
 Max camber    =    -0.020968  at x =   0.045

 Maximum panel corner angle =  5.140   at  i,x,y  = 109   0.0001   0.0023

.GDES   c>  
 Buffer airfoil is not identical to current airfoil

 XFOIL   c>  
 Blunt trailing edge.  Gap =  0.00027

 Paneling parameters used...
   Number of panel nodes       160
   Panel bunching parameter    1.000
   TE/LE panel density ratio   0.150
   Refined-area/LE panel density ratio    0.200
   Top    side refined area x/c limits  1.000 1.000
   Bottom side refined area x/c limits  1.000 1.000

 XFOIL   c>  
.OPERi   c>   Current iteration limit:          20

Enter new iteration limit   i>  
Enter new iteration limit   i>  
Enter new iteration limit   i>  
.OPERi   c>  
 M  =    0.0000
 Re =  0.3000E+06

.OPERv   c>  
 Sonic Cp =    -66.86      Sonic Q/Qinf =     9.138


.OPERv   c>  
 Polar  1 newly created for accumulation
 Airfoil archived with polar: 000264                                          

Enter  polar save filename  OR  <return> for no file   s>  
 New polar save file available

Enter  polar dump filename  OR  <return> for no file   s>  
 Polar dump file will NOT be written

 Polar accumulation enabled

.OPERva   c>   Calculating unit vorticity distributions ...
 Calculating wake trajectory ...
 Calculating source influence matrix ...

 Solving BL system ...

 Initializing BL ...
    side            1  ...
 MRCHUE: Inverse mode at  54     Hk =   3.991
 MRCHUE: Inverse mode at  55     Hk =   4.835
 MRCHUE: Inverse mode at  56     Hk =   5.674
 MRCHUE: Inverse mode at  57     Hk =   6.517
 MRCHUE: Inverse mode at  58     Hk =   7.369
 MRCHUE: Inverse mode at  59     Hk =   8.237
 MRCHUE: Inverse mode at  60     Hk =   9.124
 MRCHUE: Inverse mode at  61     Hk =   8.038
 MRCHUE: Inverse mode at  62     Hk =   4.457
 MRCHUE: Inverse mode at  63     Hk =   2.507
 MRCHUE: Convergence failed at  86  side 1    Res =  0.3642E+02
    side            2  ...
 MRCHUE: Inverse mode at  35     Hk =   4.145
 MRCHUE: Inverse mode at  36     Hk =   4.907
 MRCHUE: Inverse mode at  37     Hk =   5.689
 MRCHUE: Inverse mode at  38     Hk =   6.503
 MRCHUE: Inverse mode at  39     Hk =   7.363
 MRCHUE: Inverse mode at  40     Hk =   8.277
 MRCHUE: Inverse mode at  41     Hk =   9.256
 MRCHUE: Inverse mode at  42     Hk =   7.240
 MRCHUE: Inverse mode at  43     Hk =   3.382
 MRCHUE: Convergence failed at  76  side 2    Res =  0.9863E+01

 MRCHDU: Convergence failed at  86  side 1    Res =  0.4041E+02
 MRCHDU: Convergence failed at  76  side 2    Res =  0.1728E+03
 Side 1  free  transition at x/c =  0.4673   61
 Side 2  free  transition at x/c =  0.2306   42

   1   rms: 0.6121E+00   max: 0.2983E+01   D at   78  2   RLX: 0.446
       a =  2.000      CL =  0.5981
      Cm = -0.1270     CD =  0.00765   =>   CDf =  0.00871    CDp = -0.00106

 Side 1  free  transition at x/c =  0.4738   61
 Side 2  free  transition at x/c =  0.2256   42

   2   rms: 0.2149E+00   max: 0.9366E+00   D at   81  2
       a =  2.000      CL =  0.5152
      Cm = -0.1062     CD =  0.01519   =>   CDf =  0.00895    CDp =  0.00624

 MRCHDU: Convergence failed at  61  side 1    Res =  0.4814E+01
 MRCHDU: Convergence failed at  62  side 1    Res =  0.4631E+01
 MRCHDU: Convergence failed at  63  side 1    Res =  0.7515E+01
 MRCHDU: Convergence failed at  64  side 1    Res =  0.2916E+02
 MRCHDU: Convergence failed at  65  side 1    Res =  0.4514E+03
 MRCHDU: Convergence failed at  66  side 1    Res =  0.2461E+03
 MRCHDU: Convergence failed at  67  side 1    Res =  0.9497E+03
 MRCHDU: Convergence failed at  68  side 1    Res =  0.2249E+03
 MRCHDU: Convergence failed at  69  side 1    Res =  0.9394E+02
 MRCHDU: Convergence failed at  70  side 1    Res =  0.5862E+02
 MRCHDU: Convergence failed at  71  side 1    Res =  0.4247E+02
 MRCHDU: Convergence failed at  72  side 1    Res =  0.3333E+02
 MRCHDU: Convergence failed at  73  side 1    Res =  0.2779E+02
 MRCHDU: Convergence failed at  74  side 1    Res =  0.2366E+02
 MRCHDU: Convergence failed at  75  side 1    Res =  0.2058E+02
 MRCHDU: Convergence failed at  76  side 1    Res =  0.1808E+02
 MRCHDU: Convergence failed at  77  side 1    Res =  0.1601E+02
 MRCHDU: Convergence failed at  78  side 1    Res =  0.1412E+02
 MRCHDU: Convergence failed at  79  side 1    Res =  0.1249E+02
 MRCHDU: Convergence failed at  80  side 1    Res =  0.1215E+02
 MRCHDU: Convergence failed at  81  side 1    Res =  0.1681E+02
 MRCHDU: Convergence failed at  82  side 1    Res =  0.2918E+02
 MRCHDU: Convergence failed at  83  side 1    Res =  0.1667E+03
 MRCHDU: Convergence failed at  84  side 1    Res =  0.4069E+02
 MRCHDU: Convergence failed at  85  side 1    Res =  0.2049E+02
 Side 1  free  transition at x/c =  0.4833   61
 Side 2  free  transition at x/c =  0.2215   43

   3   rms: 0.5879E+00   max: 0.3301E+01   D at   85  1   RLX: 0.454
       a =  2.000      CL =  0.5828
      Cm = -0.1838     CD =  0.01043   =>   CDf =  0.00640    CDp =  0.00404

 MRCHDU: Convergence failed at  43  side 2    Res =  0.2312E+01
 MRCHDU: Convergence failed at  44  side 2    Res =  0.2589E+01
 MRCHDU: Convergence failed at  45  side 2    Res =  0.1272E+02
 MRCHDU: Convergence failed at  46  side 2    Res =  0.1389E+02
 MRCHDU: Convergence failed at  47  side 2    Res =  0.7631E+01
 MRCHDU: Convergence failed at  48  side 2    Res =  0.6319E+01
 MRCHDU: Convergence failed at  49  side 2    Res =  0.6166E+01
 MRCHDU: Convergence failed at  50  side 2    Res =  0.6267E+01
 MRCHDU: Convergence failed at  51  side 2    Res =  0.6516E+01
 MRCHDU: Convergence failed at  52  side 2    Res =  0.7026E+01
 MRCHDU: Convergence failed at  53  side 2    Res =  0.7854E+01
 MRCHDU: Convergence failed at  54  side 2    Res =  0.9136E+01
 MRCHDU: Convergence failed at  55  side 2    Res =  0.1150E+02
 MRCHDU: Convergence failed at  56  side 2    Res =  0.1474E+02
 MRCHDU: Convergence failed at  57  side 2    Res =  0.2153E+02
 MRCHDU: Convergence failed at  58  side 2    Res =  0.3299E+02
 MRCHDU: Convergence failed at  59  side 2    Res =  0.1245E+03
 MRCHDU: Convergence failed at  60  side 2    Res =  0.2591E+03
 MRCHDU: Convergence failed at  61  side 2    Res =  0.6940E+02
 MRCHDU: Convergence failed at  62  side 2    Res =  0.3269E+02
 MRCHDU: Convergence failed at  63  side 2    Res =  0.9342E+01
 MRCHDU: Convergence failed at  64  side 2    Res =  0.1089E+02
 MRCHDU: Convergence failed at  65  side 2    Res =  0.1239E+02
 MRCHDU: Convergence failed at  66  side 2    Res =  0.1449E+02
 MRCHDU: Convergence failed at  67  side 2    Res =  0.1828E+02
 MRCHDU: Convergence failed at  68  side 2    Res =  0.1978E+02
 MRCHDU: Convergence failed at  69  side 2    Res =  0.2122E+02
 MRCHDU: Convergence failed at  70  side 2    Res =  0.2008E+02
 MRCHDU: Convergence failed at  71  side 2    Res =  0.2684E+02
 MRCHDU: Convergence failed at  72  side 2    Res =  0.2818E+02
 MRCHDU: Convergence failed at  73  side 2    Res =  0.3010E+02
 MRCHDU: Convergence failed at  74  side 2    Res =  0.3045E+02
 MRCHDU: Convergence failed at  75  side 2    Res =  0.2916E+02
 MRCHDU: Convergence failed at  76  side 2    Res =  0.4724E+02
 MRCHDU: Convergence failed at  77  side 2    Res =  0.1659E+02
 Side 1  free  transition at x/c =  0.4747   61
 Side 2  free  transition at x/c =  0.2150   42

   4   rms: 0.5670E+00   max: 0.2434E+01   D at   71  2   RLX: 0.379
       a =  2.000      CL =  0.2862
      Cm = -0.0097     CD =  0.01669   =>   CDf =  0.00491    CDp =  0.01178

 MRCHDU: Convergence failed at  48  side 2    Res =  0.2129E+00
 MRCHDU: Convergence failed at  49  side 2    Res =  0.4845E-01
 Side 1  free  transition at x/c =  0.4780   61
 Side 2  free  transition at x/c =  0.2093   42

   5   rms: 0.5521E+00   max: -.3172E+01   D at   74  1   RLX: 0.158
       a =  2.000      CL =  0.4783
      Cm = -0.0803     CD =  0.03642   =>   CDf =  0.00544    CDp =  0.03097

 MRCHDU: Convergence failed at  49  side 2    Res =  0.1491E+00
 MRCHDU: Convergence failed at  50  side 2    Res =  0.4828E+00
 Side 1  free  transition at x/c =  0.4813   61
 Side 2  free  transition at x/c =  0.2126   42

   6   rms: 0.9106E+01   max: -.4624E+02   D at   79  1   RLX: 0.011
       a =  2.000      CL =  0.7153
      Cm = -0.1456     CD =  0.04056   =>   CDf =  0.00501    CDp =  0.03555

 Side 1  free  transition at x/c =  0.4808   62
 Side 2  free  transition at x/c =  0.2189   41

   7   rms: 0.7039E+01   max: -.2477E+02   D at   83  1   RLX: 0.020
       a =  2.000      CL =  0.9077
      Cm = -0.1740     CD =  0.04466   =>   CDf =  0.00539    CDp =  0.03927

 Side 1  free  transition at x/c =  0.4770   63
 Side 2  free  transition at x/c =  0.2161   40

   8   rms: 0.2350E+01   max: -.1609E+02   T at   40  2   RLX: 0.031
       a =  2.000      CL =  0.8688
      Cm = -0.1774     CD =  0.03967   =>   CDf =  0.00585    CDp =  0.03382

 Side 1  free  transition at x/c =  0.4784   63
 Side 2  free  transition at x/c =  0.2300   41

   9   rms: 0.1052E+01   max: -.5034E+01   T at   41  2   RLX: 0.099
       a =  2.000      CL =  0.8158
      Cm = -0.1835     CD =  0.03155   =>   CDf =  0.00595    CDp =  0.02560

 Side 1  free  transition at x/c =  0.4802   62
 Side 2  free  transition at x/c =  0.2484   43

  10   rms: 0.5390E+01   max: -.1969E+02   D at   49  2   RLX: 0.025
       a =  2.000      CL =  0.7410
      Cm = -0.1914     CD =  0.02471   =>   CDf =  0.00591    CDp =  0.01879

 Side 1  free  transition at x/c =  0.4829   62
 Side 2  free  transition at x/c =  0.2795   44

  11   rms: 0.1154E+01   max: -.6004E+01   D at   51  2   RLX: 0.083
       a =  2.000      CL =  0.7510
      Cm = -0.1985     CD =  0.01798   =>   CDf =  0.00616    CDp =  0.01182

 MRCHDU: Convergence failed at  45  side 2    Res =  0.1203E+01
 MRCHDU: Convergence failed at  46  side 2    Res =  0.4509E+01
 MRCHDU: Convergence failed at  47  side 2    Res =  0.2944E+01
 MRCHDU: Convergence failed at  48  side 2    Res =  0.4536E+01
 MRCHDU: Convergence failed at  49  side 2    Res =  0.8502E+01
 MRCHDU: Convergence failed at  50  side 2    Res =  0.7364E+01
 MRCHDU: Convergence failed at  51  side 2    Res =  0.1730E+02
 MRCHDU: Convergence failed at  52  side 2    Res =  0.1688E+02
 MRCHDU: Convergence failed at  53  side 2    Res =  0.1174E+02
 MRCHDU: Convergence failed at  54  side 2    Res =  0.1219E+02
 MRCHDU: Convergence failed at  55  side 2    Res =  0.1239E+02
 MRCHDU: Convergence failed at  56  side 2    Res =  0.2300E+02
 MRCHDU: Convergence failed at  57  side 2    Res =  0.2598E+02
 MRCHDU: Convergence failed at  58  side 2    Res =  0.1271E+02
 MRCHDU: Convergence failed at  59  side 2    Res =  0.1186E+02
 MRCHDU: Convergence failed at  60  side 2    Res =  0.9446E+01
 MRCHDU: Convergence failed at  61  side 2    Res =  0.9272E+01
 MRCHDU: Convergence failed at  62  side 2    Res =  0.1447E+02
 MRCHDU: Convergence failed at  63  side 2    Res =  0.1778E+02
 MRCHDU: Convergence failed at  64  side 2    Res =  0.3379E+02
 MRCHDU: Convergence failed at  65  side 2    Res =  0.1725E+03
 MRCHDU: Convergence failed at  66  side 2    Res =  0.5201E+02
 MRCHDU: Convergence failed at  67  side 2    Res =  0.2309E+02
 MRCHDU: Convergence failed at  68  side 2    Res =  0.1875E+02
 MRCHDU: Convergence failed at  69  side 2    Res =  0.1437E+02
 MRCHDU: Convergence failed at  70  side 2    Res =  0.9942E+01
 MRCHDU: Convergence failed at  71  side 2    Res =  0.1056E+02
 MRCHDU: Convergence failed at  72  side 2    Res =  0.1127E+02
 MRCHDU: Convergence failed at  73  side 2    Res =  0.1192E+02
 MRCHDU: Convergence failed at  74  side 2    Res =  0.1253E+02
 MRCHDU: Convergence failed at  75  side 2    Res =  0.1378E+02
 MRCHDU: Convergence failed at  76  side 2    Res =  0.1879E+02
 Side 1  free  transition at x/c =  0.4826   62
 Side 2  free  transition at x/c =  0.2968   45

  12   rms: 0.4605E+00   max: 0.1886E+01   T at   45  2   RLX: 0.420
       a =  2.000      CL =  0.3916
      Cm = -0.0335     CD =  0.01052   =>   CDf =  0.00585    CDp =  0.00467

 Side 1  free  transition at x/c =  0.4814   62
 Side 2  free  transition at x/c =  0.2491   43

  13   rms: 0.2274E+00   max: 0.1020E+01   T at   43  2   RLX: 0.962
       a =  2.000      CL =  0.5275
      Cm = -0.1068     CD =  0.01488   =>   CDf =  0.00992    CDp =  0.00496

 MRCHDU: Convergence failed at  44  side 2    Res =  0.7885E+01
 MRCHDU: Convergence failed at  45  side 2    Res =  0.7171E+01
 MRCHDU: Convergence failed at  46  side 2    Res =  0.2691E+01
 MRCHDU: Convergence failed at  47  side 2    Res =  0.4544E+01
 MRCHDU: Convergence failed at  48  side 2    Res =  0.7013E+02
 MRCHDU: Convergence failed at  49  side 2    Res =  0.1382E+02
 MRCHDU: Convergence failed at  50  side 2    Res =  0.1447E+02
 MRCHDU: Convergence failed at  51  side 2    Res =  0.1752E+02
 MRCHDU: Convergence failed at  52  side 2    Res =  0.5904E+02
 MRCHDU: Convergence failed at  53  side 2    Res =  0.1936E+03
 MRCHDU: Convergence failed at  54  side 2    Res =  0.1136E+03
 MRCHDU: Convergence failed at  55  side 2    Res =  0.4235E+02
 MRCHDU: Convergence failed at  56  side 2    Res =  0.1994E+02
 MRCHDU: Convergence failed at  57  side 2    Res =  0.1320E+02
 MRCHDU: Convergence failed at  58  side 2    Res =  0.8155E+01
 MRCHDU: Convergence failed at  59  side 2    Res =  0.7761E+01
 MRCHDU: Convergence failed at  60  side 2    Res =  0.6650E+01
 MRCHDU: Convergence failed at  61  side 2    Res =  0.3061E+02
 MRCHDU: Convergence failed at  62  side 2    Res =  0.5553E+02
 MRCHDU: Convergence failed at  63  side 2    Res =  0.2650E+03
 MRCHDU: Convergence failed at  64  side 2    Res =  0.8253E+02
 MRCHDU: Convergence failed at  65  side 2    Res =  0.4193E+02
 MRCHDU: Convergence failed at  66  side 2    Res =  0.2915E+02
 MRCHDU: Convergence failed at  67  side 2    Res =  0.2378E+02
 MRCHDU: Convergence failed at  68  side 2    Res =  0.2032E+02
 MRCHDU: Convergence failed at  69  side 2    Res =  0.1769E+02
 MRCHDU: Convergence failed at  70  side 2    Res =  0.1602E+02
 MRCHDU: Convergence failed at  71  side 2    Res =  0.2430E+02
 MRCHDU: Convergence failed at  72  side 2    Res =  0.2354E+02
 MRCHDU: Convergence failed at  73  side 2    Res =  0.2412E+02
 MRCHDU: Convergence failed at  74  side 2    Res =  0.2662E+02
 MRCHDU: Convergence failed at  75  side 2    Res =  0.3249E+02
 MRCHDU: Convergence failed at  76  side 2    Res =  0.4938E+02
 MRCHDU: Convergence failed at  77  side 2    Res =  0.1708E+02
 Side 1  free  transition at x/c =  0.4815   61
 Side 2  free  transition at x/c =  0.2240   43

  14   rms: 0.3317E+00   max: 0.1216E+01   D at   79  2   RLX: 0.800
       a =  2.000      CL =  0.5798
      Cm = -0.0864     CD =  0.01534   =>   CDf =  0.00568    CDp =  0.00966

 MRCHDU: Convergence failed at  76  side 2    Res =  0.2232E+00
 Side 1  free  transition at x/c =  0.4782   62
 Side 2  free  transition at x/c =  0.2186   41

  15   rms: 0.4776E+00   max: -.1801E+01   D at   55  2   RLX: 0.278
       a =  2.000      CL =  0.6062
      Cm = -0.1351     CD =  0.02891   =>   CDf =  0.00663    CDp =  0.02228

 Side 1  free  transition at x/c =  0.4806   62
 Side 2  free  transition at x/c =  0.2192   41

  16   rms: 0.1044E+01   max: -.5048E+01   D at   55  2   RLX: 0.099
       a =  2.000      CL =  0.5724
      Cm = -0.1426     CD =  0.02431   =>   CDf =  0.00661    CDp =  0.01770

 Side 1  free  transition at x/c =  0.4819   61
 Side 2  free  transition at x/c =  0.2190   42

  17   rms: 0.1745E+01   max: -.9078E+01   D at   60  2   RLX: 0.055
       a =  2.000      CL =  0.5174
      Cm = -0.1395     CD =  0.02111   =>   CDf =  0.00674    CDp =  0.01437

 Side 1  free  transition at x/c =  0.4831   61
 Side 2  free  transition at x/c =  0.2176   42

  18   rms: 0.1801E+01   max: -.8260E+01   D at   64  2   RLX: 0.061
       a =  2.000      CL =  0.4374
      Cm = -0.1282     CD =  0.01907   =>   CDf =  0.00688    CDp =  0.01219

 Side 1  free  transition at x/c =  0.4847   60
 Side 2  free  transition at x/c =  0.2149   43

  19   rms: 0.1384E+01   max: -.5798E+01   D at   65  2   RLX: 0.086
       a =  2.000      CL =  0.3445
      Cm = -0.1119     CD =  0.01778   =>   CDf =  0.00710    CDp =  0.01068

 Side 1  free  transition at x/c =  0.4865   60
 Side 2  free  transition at x/c =  0.2114   43

  20   rms: 0.3529E+00   max: -.1914E+01   D at   77  2   RLX: 0.261
       a =  2.000      CL =  0.3113
      Cm = -0.0976     CD =  0.01665   =>   CDf =  0.00758    CDp =  0.00906

 Side 1  free  transition at x/c =  0.4868   60
 Side 2  free  transition at x/c =  0.2104   43

  21   rms: 0.2188E+00   max: -.1101E+01   D at   78  2   RLX: 0.454
       a =  2.000      CL =  0.3567
      Cm = -0.0931     CD =  0.01642   =>   CDf =  0.00789    CDp =  0.00853

 Side 1  free  transition at x/c =  0.4854   60
 Side 2  free  transition at x/c =  0.2127   43

  22   rms: 0.1477E+00   max: -.6395E+00   D at   76  2   RLX: 0.782
       a =  2.000      CL =  0.4611
      Cm = -0.0994     CD =  0.01663   =>   CDf =  0.00820    CDp =  0.00843

 Side 1  free  transition at x/c =  0.4827   61
 Side 2  free  transition at x/c =  0.2178   42

  23   rms: 0.4697E-01   max: -.2796E+00   D at   75  2
       a =  2.000      CL =  0.5048
      Cm = -0.1036     CD =  0.01674   =>   CDf =  0.00859    CDp =  0.00815

 Side 1  free  transition at x/c =  0.4817   61
 Side 2  free  transition at x/c =  0.2198   42

  24   rms: 0.3018E-02   max: -.4282E-01   D at   75  2
       a =  2.000      CL =  0.5046
      Cm = -0.1035     CD =  0.01673   =>   CDf =  0.00873    CDp =  0.00800

 Side 1  free  transition at x/c =  0.4817   61
 Side 2  free  transition at x/c =  0.2197   42

  25   rms: 0.7509E-04   max: -.1203E-02   D at   75  2
       a =  2.000      CL =  0.5045
      Cm = -0.1035     CD =  0.01673   =>   CDf =  0.00874    CDp =  0.00800

 Point added to stored polar  1
 Point written to save file  000264M0.1.log                                  
 Dump file unspecified or not available
 Calculating wake trajectory ...
 Calculating source influence matrix ...

 Solving BL system ...

 Side 1  free  transition at x/c =  0.4817   61
 Side 2  free  transition at x/c =  0.2197   42

   1   rms: 0.1380E+00   max: -.7422E+00   T at   42  2   RLX: 0.674
       a =  3.000      CL =  0.5821
      Cm = -0.1028     CD =  0.01696   =>   CDf =  0.00866    CDp =  0.00830

 MRCHDU: Convergence failed at  42  side 2    Res =  0.1117E+02
 MRCHDU: Convergence failed at  43  side 2    Res =  0.5603E+01
 MRCHDU: Convergence failed at  44  side 2    Res =  0.3541E+02
 MRCHDU: Convergence failed at  45  side 2    Res =  0.2936E+02
 MRCHDU: Convergence failed at  46  side 2    Res =  0.2150E+02
 MRCHDU: Convergence failed at  47  side 2    Res =  0.2317E+02
 MRCHDU: Convergence failed at  48  side 2    Res =  0.2862E+02
 MRCHDU: Convergence failed at  49  side 2    Res =  0.3546E+02
 MRCHDU: Convergence failed at  50  side 2    Res =  0.4658E+02
 MRCHDU: Convergence failed at  51  side 2    Res =  0.6511E+02
 MRCHDU: Convergence failed at  52  side 2    Res =  0.1182E+03
 MRCHDU: Convergence failed at  53  side 2    Res =  0.1207E+04
 MRCHDU: Convergence failed at  54  side 2    Res =  0.1475E+03
 MRCHDU: Convergence failed at  55  side 2    Res =  0.6936E+02
 MRCHDU: Convergence failed at  56  side 2    Res =  0.4490E+02
 MRCHDU: Convergence failed at  57  side 2    Res =  0.3329E+02
 MRCHDU: Convergence failed at  58  side 2    Res =  0.2673E+02
 MRCHDU: Convergence failed at  59  side 2    Res =  0.2214E+02
 MRCHDU: Convergence failed at  60  side 2    Res =  0.1896E+02
 MRCHDU: Convergence failed at  61  side 2    Res =  0.1659E+02
 MRCHDU: Convergence failed at  62  side 2    Res =  0.1462E+02
 MRCHDU: Convergence failed at  63  side 2    Res =  0.9930E+01
 MRCHDU: Convergence failed at  64  side 2    Res =  0.1186E+02
 MRCHDU: Convergence failed at  65  side 2    Res =  0.1431E+02
 MRCHDU: Convergence failed at  66  side 2    Res =  0.1731E+02
 MRCHDU: Convergence failed at  67  side 2    Res =  0.2114E+02
 MRCHDU: Convergence failed at  68  side 2    Res =  0.2587E+02
 MRCHDU: Convergence failed at  69  side 2    Res =  0.3152E+02
 MRCHDU: Convergence failed at  70  side 2    Res =  0.3752E+02
 MRCHDU: Convergence failed at  71  side 2    Res =  0.4259E+02
 MRCHDU: Convergence failed at  72  side 2    Res =  0.2887E+02
 MRCHDU: Convergence failed at  73  side 2    Res =  0.2659E+02
 MRCHDU: Convergence failed at  74  side 2    Res =  0.2589E+02
 MRCHDU: Convergence failed at  75  side 2    Res =  0.2569E+02
 MRCHDU: Convergence failed at  76  side 2    Res =  0.2113E+02
 Side 1  free  transition at x/c =  0.4731   61
 Side 2  free  transition at x/c =  0.2323   42

   2   rms: 0.4408E+00   max: 0.1882E+01   T at   75  2   RLX: 0.797
       a =  3.000      CL =  0.5588
      Cm = -0.0692     CD =  0.01396   =>   CDf =  0.00559    CDp =  0.00836

 Side 1  free  transition at x/c =  0.4690   62
 Side 2  free  transition at x/c =  0.2331   41

   3   rms: 0.2165E+00   max: -.1099E+01   D at   75  2   RLX: 0.455
       a =  3.000      CL =  0.5309
      Cm = -0.0818     CD =  0.01908   =>   CDf =  0.00820    CDp =  0.01088

 Side 1  free  transition at x/c =  0.4704   61
 Side 2  free  transition at x/c =  0.2312   42

   4   rms: 0.4011E+00   max: -.2298E+01   D at   66  2   RLX: 0.218
       a =  3.000      CL =  0.5481
      Cm = -0.0930     CD =  0.01734   =>   CDf =  0.00810    CDp =  0.00924

 Side 1  free  transition at x/c =  0.4701   61
 Side 2  free  transition at x/c =  0.2325   42

   5   rms: 0.2760E+00   max: -.1739E+01   D at   66  2   RLX: 0.287
       a =  3.000      CL =  0.5632
[...]
 MRCHDU: Convergence failed at  82  side 1    Res =  0.1647E+02
 MRCHDU: Convergence failed at  83  side 1    Res =  0.1903E+02
 MRCHDU: Convergence failed at  84  side 1    Res =  0.3207E+02
 MRCHDU: Convergence failed at  85  side 1    Res =  0.3412E+02
 MRCHDU: Convergence failed at  86  side 1    Res =  0.4064E+02
 MRCHDU: Convergence failed at  87  side 1    Res =  0.1332E+02
 MRCHDU: Convergence failed at  88  side 1    Res =  0.5039E+02
 MRCHDU: Convergence failed at  89  side 1    Res =  0.6794E+02
 MRCHDU: Convergence failed at  90  side 1    Res =  0.9908E+02
 MRCHDU: Convergence failed at  91  side 1    Res =  0.1787E+02
 MRCHDU: Convergence failed at  92  side 1    Res =  0.2476E+02
 MRCHDU: Convergence failed at  93  side 1    Res =  0.6195E+02
 Side 1  free  transition at x/c =  0.4030   65
 Side 2  free  transition at x/c =  0.8716   62

   2   rms: 0.7772E+00   max: 0.3776E+01   D at   93  1   RLX: 0.357
       a =  8.000      CL =  1.4298
      Cm = -0.2785     CD =  0.00708   =>   CDf =  0.00371    CDp =  0.00337

 MRCHDU: Convergence failed at  71  side 2    Res =  0.3524E+01
 MRCHDU: Convergence failed at  72  side 2    Res =  0.5462E+01
 MRCHDU: Convergence failed at  73  side 2    Res =  0.6323E+01
 MRCHDU: Convergence failed at  74  side 2    Res =  0.6133E+01
 MRCHDU: Convergence failed at  75  side 2    Res =  0.2965E+01
 MRCHDU: Convergence failed at  76  side 2    Res =  0.2368E+01
 Side 1  free  transition at x/c =  0.3848   64
 Side 2  free  transition at x/c =  0.8851   62

   3   rms: 0.2710E+00   max: -.6287E+00   D at   63  2   RLX: 0.509
       a =  8.000      CL =  1.1005
      Cm = -0.1233     CD =  0.02408   =>   CDf =  0.00456    CDp =  0.01952

 Side 1  free  transition at x/c =  0.4016   65
 Side 2  free  transition at x/c =  0.8922   63

   4   rms: 0.8954E+00   max: -.5357E+01   D at   81  1   RLX: 0.093
       a =  8.000      CL =  1.0328
      Cm = -0.0947     CD =  0.02092   =>   CDf =  0.00461    CDp =  0.01632

 Side 1  free  transition at x/c =  0.4081   65
 Side 2  free  transition at x/c =  0.8899   63

   5   rms: 0.5104E+01   max: -.3622E+02   D at   81  1   RLX: 0.014
       a =  8.000      CL =  1.0007
      Cm = -0.0892     CD =  0.02107   =>   CDf =  0.00497    CDp =  0.01610

 MRCHDU: Convergence failed at  81  side 1    Res =  0.1329E+00
 MRCHDU: Convergence failed at  82  side 1    Res =  0.2926E+00
 MRCHDU: Convergence failed at  83  side 1    Res =  0.3401E-01
 MRCHDU: Convergence failed at  84  side 1    Res =  0.1814E+01
 Side 1  free  transition at x/c =  0.4139   66
 Side 2  free  transition at x/c =  0.8863   62

   6   rms: 0.4017E+00   max: -.2632E+01   D at   76  1   RLX: 0.190
       a =  8.000      CL =  0.9356
      Cm = -0.0527     CD =  0.02112   =>   CDf =  0.00530    CDp =  0.01582

 MRCHDU: Convergence failed at  70  side 1    Res =  0.1176E+00
 MRCHDU: Convergence failed at  79  side 1    Res =  0.9344E+00
 MRCHDU: Convergence failed at  80  side 1    Res =  0.2816E+02
 MRCHDU: Convergence failed at  81  side 1    Res =  0.2272E+01
 MRCHDU: Convergence failed at  82  side 1    Res =  0.1198E+01
 Side 1  free  transition at x/c =  0.4163   66
 Side 2  free  transition at x/c =  0.8853   62

   7   rms: 0.2203E+00   max: -.1387E+01   D at   78  1   RLX: 0.361
       a =  8.000      CL =  0.9694
      Cm = -0.0631     CD =  0.02021   =>   CDf =  0.00559    CDp =  0.01462

 Side 1  free  transition at x/c =  0.4140   66
 Side 2  free  transition at x/c =  0.8894   63

   8   rms: 0.1911E+00   max: -.1091E+01   D at   78  1   RLX: 0.458
       a =  8.000      CL =  0.9891
      Cm = -0.0612     CD =  0.01923   =>   CDf =  0.00556    CDp =  0.01367

 Side 1  free  transition at x/c =  0.4104   65
 Side 2  free  transition at x/c =  0.8954   63

   9   rms: 0.2121E+00   max: -.8674E+00   D at   86  1   RLX: 0.576
       a =  8.000      CL =  1.0723
      Cm = -0.0721     CD =  0.01692   =>   CDf =  0.00565    CDp =  0.01127

 Side 1  free  transition at x/c =  0.4002   65
 Side 2  free  transition at x/c =  0.9048   63

  10   rms: 0.1641E+00   max: -.8017E+00   D at   86  1   RLX: 0.624
       a =  8.000      CL =  1.1563
      Cm = -0.0875     CD =  0.01664   =>   CDf =  0.00573    CDp =  0.01091

 Side 1  free  transition at x/c =  0.3933   66
 Side 2  free  transition at x/c =  0.9090   63

  11   rms: 0.5299E-01   max: -.4245E+00   D at   87  1
       a =  8.000      CL =  1.1503
      Cm = -0.0881     CD =  0.01661   =>   CDf =  0.00614    CDp =  0.01047

 Side 1  free  transition at x/c =  0.3931   66
 Side 2  free  transition at x/c =  0.9065   63

  12   rms: 0.2258E-01   max: -.1117E+00   D at   92  1
       a =  8.000      CL =  1.1262
      Cm = -0.0841     CD =  0.01681   =>   CDf =  0.00616    CDp =  0.01064

 Side 1  free  transition at x/c =  0.3944   66
 Side 2  free  transition at x/c =  0.9062   63

  13   rms: 0.1129E-02   max: -.1481E-01   D at   92  1
       a =  8.000      CL =  1.1257
      Cm = -0.0840     CD =  0.01685   =>   CDf =  0.00611    CDp =  0.01074

 Side 1  free  transition at x/c =  0.3943   66
 Side 2  free  transition at x/c =  0.9060   63

  14   rms: 0.2137E-04   max: -.2982E-03   D at   92  1
       a =  8.000      CL =  1.1257
      Cm = -0.0840     CD =  0.01685   =>   CDf =  0.00611    CDp =  0.01074

 Point added to stored polar  1
 Point written to save file  000264M0.1.log                                  
 Dump file unspecified or not available
 Calculating wake trajectory ...
 Calculating source influence matrix ...

 Solving BL system ...

 Side 1  free  transition at x/c =  0.3943   66
 Side 2  free  transition at x/c =  0.9060   63

   1   rms: 0.1376E+00   max: -.1016E+01   T at   63  2   RLX: 0.492
       a =  9.000      CL =  1.1582
      Cm = -0.0780     CD =  0.01697   =>   CDf =  0.00612    CDp =  0.01085

 Side 1  free  transition at x/c =  0.3855   65
 Side 2  free  transition at x/c =  0.9242   64

   2   rms: 0.9781E-01   max: -.1224E+01   T at   64  2   RLX: 0.408
       a =  9.000      CL =  1.1660
      Cm = -0.0755     CD =  0.01693   =>   CDf =  0.00586    CDp =  0.01106

 Side 1  free  transition at x/c =  0.3808   66
 Side 2  free  transition at x/c =  0.9357   63

   3   rms: 0.6188E-01   max: -.5118E+00   D at   63  2   RLX: 0.977
       a =  9.000      CL =  1.1987
      Cm = -0.0748     CD =  0.01700   =>   CDf =  0.00594    CDp =  0.01106

 MRCHDU: Convergence failed at  65  side 2    Res =  0.1356E+02
 MRCHDU: Convergence failed at  66  side 2    Res =  0.1992E+01
 Side 1  free  transition at x/c =  0.3732   65
 Side 2  free  transition at x/c =  0.9617   65

   4   rms: 0.3715E-01   max: -.4704E+00   D at   66  2
       a =  9.000      CL =  1.1938
      Cm = -0.0732     CD =  0.01688   =>   CDf =  0.00598    CDp =  0.01090

 Side 1  free  transition at x/c =  0.3738   65
 Side 2  free  transition at x/c =  0.9579   65

   5   rms: 0.8736E-02   max: -.1114E+00   C at   65  2
       a =  9.000      CL =  1.1874
      Cm = -0.0719     CD =  0.01681   =>   CDf =  0.00599    CDp =  0.01083

 Side 1  free  transition at x/c =  0.3743   66
 Side 2  free  transition at x/c =  0.9612   65

   6   rms: 0.6073E-03   max: -.6626E-02   D at   65  1
       a =  9.000      CL =  1.1873
      Cm = -0.0719     CD =  0.01680   =>   CDf =  0.00599    CDp =  0.01081

 Side 1  free  transition at x/c =  0.3743   66
 Side 2  free  transition at x/c =  0.9611   65

   7   rms: 0.9275E-05   max: 0.6940E-04   C at   65  2
       a =  9.000      CL =  1.1873
      Cm = -0.0719     CD =  0.01680   =>   CDf =  0.00598    CDp =  0.01082

 Point added to stored polar  1
 Point written to save file  000264M0.1.log                                  
 Dump file unspecified or not available
 Calculating wake trajectory ...
 Calculating source influence matrix ...

 Solving BL system ...

 Side 1  free  transition at x/c =  0.3743   66
 Side 2  free  transition at x/c =  0.9611   65

   1   rms: 0.1553E+00   max: -.1475E+01   C at   65  2   RLX: 0.339
       a = 10.000      CL =  1.2174
      Cm = -0.0697     CD =  0.01705   =>   CDf =  0.00599    CDp =  0.01106

 Side 1  free  transition at x/c =  0.3655   65
 Side 2  free  transition at x/c =  0.9819   66

   2   rms: 0.1633E+00   max: -.2815E+01   C at   66  2   RLX: 0.178
       a = 10.000      CL =  1.2307
      Cm = -0.0704     CD =  0.01687   =>   CDf =  0.00576    CDp =  0.01111

 Side 1  free  transition at x/c =  0.3614   66
 Side 2  free  transition at x/c =  0.9885   66

   3   rms: 0.1252E+00   max: -.2143E+01   C at   66  2   RLX: 0.233
       a = 10.000      CL =  1.2477
      Cm = -0.0709     CD =  0.01698   =>   CDf =  0.00585    CDp =  0.01113

 Side 1  free  transition at x/c =  0.3571   66
 Side 2 forced transition at x/c =  1.0001   66

   4   rms: 0.7463E-01   max: -.8961E+00   C at   66  2   RLX: 0.558
       a = 10.000      CL =  1.2659
      Cm = -0.0694     CD =  0.01714   =>   CDf =  0.00587    CDp =  0.01126

 Side 1  free  transition at x/c =  0.3515   65
 Side 2 forced transition at x/c =  1.0001   66

   5   rms: 0.3101E-01   max: -.2985E+00   C at   66  2
       a = 10.000      CL =  1.2777
      Cm = -0.0677     CD =  0.01718   =>   CDf =  0.00582    CDp =  0.01136

 Side 1  free  transition at x/c =  0.3417   65
 Side 2 forced transition at x/c =  1.0001   66

   6   rms: 0.6796E-02   max: -.6045E-01   D at   65  1
       a = 10.000      CL =  1.2761
      Cm = -0.0674     CD =  0.01721   =>   CDf =  0.00585    CDp =  0.01136

 Side 1  free  transition at x/c =  0.3433   65
 Side 2 forced transition at x/c =  1.0001   66

   7   rms: 0.6728E-03   max: -.5869E-02   D at   66  1
       a = 10.000      CL =  1.2764
      Cm = -0.0674     CD =  0.01722   =>   CDf =  0.00580    CDp =  0.01142

 Side 1  free  transition at x/c =  0.3432   65
 Side 2 forced transition at x/c =  1.0001   66

   8   rms: 0.1256E-04   max: 0.1103E-03   C at   66  2
       a = 10.000      CL =  1.2764
      Cm = -0.0674     CD =  0.01722   =>   CDf =  0.00580    CDp =  0.01142

 Point added to stored polar  1
 Point written to save file  000264M0.1.log                                  
 Dump file unspecified or not available
 Calculating wake trajectory ...
 Calculating source influence matrix ...

 Solving BL system ...

 Side 1  free  transition at x/c =  0.3432   65
 Side 2 forced transition at x/c =  1.0001   66

   1   rms: 0.1538E+00   max: -.1131E+01   C at   66  2   RLX: 0.442
       a = 11.000      CL =  1.3120
      Cm = -0.0651     CD =  0.01771   =>   CDf =  0.00568    CDp =  0.01203

 Side 1  free  transition at x/c =  0.3228   65
 Side 2 forced transition at x/c =  1.0001   65

   2   rms: 0.9305E-01   max: -.7364E+00   D at   65  1   RLX: 0.679
       a = 11.000      CL =  1.3353
      Cm = -0.0619     CD =  0.01838   =>   CDf =  0.00583    CDp =  0.01255

 Side 1  free  transition at x/c =  0.2935   63
 Side 2 forced transition at x/c =  1.0001   65

   3   rms: 0.4408E-01   max: -.4850E+00   D at   65  1
       a = 11.000      CL =  1.3358
      Cm = -0.0596     CD =  0.01935   =>   CDf =  0.00586    CDp =  0.01349

 Side 1  free  transition at x/c =  0.2574   60
 Side 2 forced transition at x/c =  1.0001   65

   4   rms: 0.1292E-01   max: 0.1431E+00   D at   62  1
       a = 11.000      CL =  1.3306
      Cm = -0.0591     CD =  0.01971   =>   CDf =  0.00607    CDp =  0.01364

 Side 1  free  transition at x/c =  0.2528   60
 Side 2 forced transition at x/c =  1.0001   65

   5   rms: 0.8875E-03   max: -.1427E-01   C at   60  1
       a = 11.000      CL =  1.3301
      Cm = -0.0591     CD =  0.01973   =>   CDf =  0.00608    CDp =  0.01364

 Side 1  free  transition at x/c =  0.2533   60
 Side 2 forced transition at x/c =  1.0001   65

   6   rms: 0.5654E-05   max: 0.5521E-04   C at   60  1
       a = 11.000      CL =  1.3301
      Cm = -0.0591     CD =  0.01973   =>   CDf =  0.00608    CDp =  0.01365

 Point added to stored polar  1
 Point written to save file  000264M0.1.log                                  
 Dump file unspecified or not available
 Calculating wake trajectory ...
 Calculating source influence matrix ...

 Solving BL system ...

 Side 1  free  transition at x/c =  0.2533   60
 Side 2 forced transition at x/c =  1.0001   65

   1   rms: 0.3591E+00   max: 0.6134E+01   C at   60  1   RLX: 0.245
       a = 12.000      CL =  1.3217
      Cm = -0.0548     CD =  0.02161   =>   CDf =  0.00609    CDp =  0.01551

 Side 1  free  transition at x/c =  0.0954   47
 Side 2 forced transition at x/c =  1.0001   65

   2   rms: 0.2192E+00   max: 0.2542E+01   C at   47  1   RLX: 0.551
       a = 12.000      CL =  1.2792
      Cm = -0.0519     CD =  0.02866   =>   CDf =  0.00730    CDp =  0.02136

 Side 1  free  transition at x/c =  0.0800   45
 Side 2 forced transition at x/c =  1.0001   65

   3   rms: 0.9782E-01   max: 0.4979E+00   D at   88  1
       a = 12.000      CL =  1.2282
      Cm = -0.0446     CD =  0.03540   =>   CDf =  0.00726    CDp =  0.02815

 Side 1  free  transition at x/c =  0.0775   44
 Side 2 forced transition at x/c =  1.0001   65

   4   rms: 0.2014E-01   max: 0.1803E+00   D at   83  1
       a = 12.000      CL =  1.2246
      Cm = -0.0456     CD =  0.03619   =>   CDf =  0.00705    CDp =  0.02913

 Side 1  free  transition at x/c =  0.0780   45
 Side 2 forced transition at x/c =  1.0001   65

   5   rms: 0.1109E-01   max: -.1927E+00   C at   45  1
       a = 12.000      CL =  1.2256
      Cm = -0.0456     CD =  0.03594   =>   CDf =  0.00702    CDp =  0.02892

 Side 1  free  transition at x/c =  0.0794   45
 Side 2 forced transition at x/c =  1.0001   65

   6   rms: 0.1956E-02   max: 0.3829E-01   C at   45  1
       a = 12.000      CL =  1.2253
      Cm = -0.0456     CD =  0.03600   =>   CDf =  0.00696    CDp =  0.02904

 Side 1  free  transition at x/c =  0.0790   45
 Side 2 forced transition at x/c =  1.0001   65

   7   rms: 0.5746E-04   max: -.8173E-03   C at   45  1
       a = 12.000      CL =  1.2253
      Cm = -0.0456     CD =  0.03599   =>   CDf =  0.00697    CDp =  0.02903

 Point added to stored polar  1
 Point written to save file  000264M0.1.log                                  
 Dump file unspecified or not available
 Calculating wake trajectory ...
 Calculating source influence matrix ...

 Solving BL system ...

 Side 1  free  transition at x/c =  0.0791   45
 Side 2 forced transition at x/c =  1.0001   65

   1   rms: 0.2939E+00   max: 0.3469E+01   C at   45  1   RLX: 0.432
       a = 13.000      CL =  1.1995
      Cm = -0.0464     CD =  0.04503   =>   CDf =  0.00699    CDp =  0.03804

 Side 1  free  transition at x/c =  0.0668   43
 Side 2 forced transition at x/c =  1.0001   65

   2   rms: 0.1215E+00   max: 0.6781E+00   D at   78  1
       a = 13.000      CL =  1.1833
      Cm = -0.0476     CD =  0.05508   =>   CDf =  0.00669    CDp =  0.04839

 Side 1  free  transition at x/c =  0.0572   42
 Side 2 forced transition at x/c =  1.0001   64

   3   rms: 0.3657E-01   max: -.4958E+00   D at   43  1
       a = 13.000      CL =  1.1799
      Cm = -0.0472     CD =  0.05405   =>   CDf =  0.00683    CDp =  0.04723

 Side 1  free  transition at x/c =  0.0591   43
 Side 2 forced transition at x/c =  1.0001   64

   4   rms: 0.5322E-02   max: -.9199E-01   D at   42  1
       a = 13.000      CL =  1.1782
      Cm = -0.0470     CD =  0.05401   =>   CDf =  0.00679    CDp =  0.04722

 Side 1  free  transition at x/c =  0.0585   43
 Side 2 forced transition at x/c =  1.0001   64

   5   rms: 0.7246E-03   max: 0.7627E-02   C at   43  1
       a = 13.000      CL =  1.1785
      Cm = -0.0470     CD =  0.05396   =>   CDf =  0.00678    CDp =  0.04718

 Side 1  free  transition at x/c =  0.0584   43
 Side 2 forced transition at x/c =  1.0001   64

   6   rms: 0.3206E-04   max: 0.2145E-03   D at   75  1
       a = 13.000      CL =  1.1784
      Cm = -0.0470     CD =  0.05397   =>   CDf =  0.00678    CDp =  0.04719

 Point added to stored polar  1
 Point written to save file  000264M0.1.log                                  
 Dump file unspecified or not available
 Calculating wake trajectory ...
 Calculating source influence matrix ...

 Solving BL system ...

 Side 1  free  transition at x/c =  0.0584   43
 Side 2 forced transition at x/c =  1.0001   64

   1   rms: 0.1784E+00   max: 0.8298E+00   D at   74  1   RLX: 0.453
       a = 14.000      CL =  1.1563
      Cm = -0.0483     CD =  0.06366   =>   CDf =  0.00680    CDp =  0.05686

 Side 1  free  transition at x/c =  0.0549   42
 Side 2 forced transition at x/c =  1.0001   64

   2   rms: 0.7076E-01   max: 0.3585E+00   T at   42  1
       a = 14.000      CL =  1.1598
      Cm = -0.0486     CD =  0.07028   =>   CDf =  0.00666    CDp =  0.06363

 Side 1  free  transition at x/c =  0.0495   41
 Side 2 forced transition at x/c =  1.0001   64

   3   rms: 0.2371E-01   max: -.2273E+00   D at   41  1
       a = 14.000      CL =  1.1478
      Cm = -0.0487     CD =  0.07078   =>   CDf =  0.00664    CDp =  0.06414

 Side 1  free  transition at x/c =  0.0504   41
 Side 2 forced transition at x/c =  1.0001   64

   4   rms: 0.2510E-02   max: -.1820E-01   D at   73  1
       a = 14.000      CL =  1.1491
      Cm = -0.0485     CD =  0.07029   =>   CDf =  0.00654    CDp =  0.06375

 Side 1  free  transition at x/c =  0.0502   41
 Side 2 forced transition at x/c =  1.0001   64

   5   rms: 0.1097E-03   max: -.6504E-03   D at   41  1
       a = 14.000      CL =  1.1492
      Cm = -0.0485     CD =  0.07033   =>   CDf =  0.00656    CDp =  0.06377

 Side 1  free Got result {'DD': 0.01661, 'Dmin': 0.01663, 'LL': -0.5027}
Completed successfully in 2.80 seconds. [{'DD': 0.01661, 'Dmin': 0.01663, 'LL': -0.5027}]
 transition at x/c =  0.0502   41
 Side 2 forced transition at x/c =  1.0001   64

   6   rms: 0.4184E-05   max: -.4892E-04   C at   64  2
       a = 14.000      CL =  1.1492
      Cm = -0.0485     CD =  0.07033   =>   CDf =  0.00656    CDp =  0.06377

 Point added to stored polar  1
 Point written to save file  000264M0.1.log                                  
 Dump file unspecified or not available
 Calculating wake trajectory ...
 Calculating source influence matrix ...

 Solving BL system ...

 Side 1  free  transition at x/c =  0.0502   41
 Side 2 forced transition at x/c =  1.0001   64

   1   rms: 0.1202E+00   max: 0.5249E+00   D at   71  1   RLX: 0.411
       a = 15.000      CL =  1.1464
      Cm = -0.0495     CD =  0.07738   =>   CDf =  0.00658    CDp =  0.07080

 Side 1  free  transition at x/c =  0.0473   41
 Side 2 forced transition at x/c =  1.0001   64

   2   rms: 0.7779E-01   max: 0.4001E+00   D at   71  1
       a = 15.000      CL =  1.1248
      Cm = -0.0512     CD =  0.08911   =>   CDf =  0.00632    CDp =  0.08279

 Side 1  free  transition at x/c =  0.0453   41
 Side 2 forced transition at x/c =  1.0001   63

   3   rms: 0.1725E-01   max: -.1788E+00   D at   41  1
       a = 15.000      CL =  1.1381
      Cm = -0.0505     CD =  0.08518   =>   CDf =  0.00641    CDp =  0.07876

 Side 1  free  transition at x/c =  0.0445   41
 Side 2 forced transition at x/c =  1.0001   63

   4   rms: 0.2348E-02   max: -.1452E-01   D at   41  1
       a = 15.000      CL =  1.1395
      Cm = -0.0504     CD =  0.08508   =>   CDf =  0.00642    CDp =  0.07866

 Side 1  free  transition at x/c =  0.0446   41
 Side 2 forced transition at x/c =  1.0001   63

   5   rms: 0.2559E-03   max: -.1056E-02   D at   80  2
       a = 15.000      CL =  1.1397
      Cm = -0.0504     CD =  0.08511   =>   CDf =  0.00642    CDp =  0.07869

 Side 1  free  transition at x/c =  0.0445   41
 Side 2 forced transition at x/c =  1.0001   63

   6   rms: 0.1024E-04   max: -.7794E-04   C at   63  2
       a = 15.000      CL =  1.1397
      Cm = -0.0504     CD =  0.08512   =>   CDf =  0.00642    CDp =  0.07869

 Point added to stored polar  1
 Point written to save file  000264M0.1.log                                  
 Dump file unspecified or not available

.OPERva   c>  
 XFOIL   c>  
