Job launching after 0.26 seconds in submission.
Running python job.
Changed into dir /home/simonx/Documents/Udacity/Projects/capstone/PESM_NSGA2_CST_XFoil
Importing evaluationFunctionXFoil.py
Running evaluationFunctionXFoil.main()
0
1
2
0.04
resp: 
 ===================================================
  XFOIL Version 6.97
  Copyright (C) 2000   Mark Drela, Harold Youngren

  This software comes with ABSOLUTELY NO WARRANTY,
    subject to the GNU General Public License.

  Caveat computor
 ===================================================

 File  xfoil.def  not found

   QUIT    Exit program

  .OPER    Direct operating point(s)
  .MDES    Complex mapping design routine
  .QDES    Surface speed design routine
  .GDES    Geometry design routine

   SAVE f  Write airfoil to labeled coordinate file
   PSAV f  Write airfoil to plain coordinate file
   ISAV f  Write airfoil to ISES coordinate file
   MSAV f  Write airfoil to MSES coordinate file
   REVE    Reverse written-airfoil node ordering
   DELI i  Change written-airfoil file delimiters

   LOAD f  Read buffer airfoil from coordinate file
   NACA i  Set NACA 4,5-digit airfoil and buffer airfoil
   INTE    Set buffer airfoil by interpolating two airfoils
   NORM    Buffer airfoil normalization toggle
   HALF    Halve the number of points in buffer airfoil
   XYCM rr Change CM reference location, currently  0.25000 0.00000

   BEND    Display structural properties of current airfoil

   PCOP    Set current-airfoil panel nodes directly from buffer airfoil points
   PANE    Set current-airfoil panel nodes ( 160 ) based on curvature
  .PPAR    Show/change paneling

  .PLOP    Plotting options

   WDEF f  Write  current-settings file
   RDEF f  Reread current-settings file
   NAME s  Specify new airfoil name
   NINC    Increment name version number

   Z       Zoom    | (available in all menus)
   U       Unzoom  | 

 XFOIL   c>   ...............................................

  G raphics-enable flag:        T
  S ize of plot object          10.00"
  A spect ratio of plot object   0.5500
  P age dimensions              11.00 x  8.50"
  M argins from page edges       0.00",  0.00"
  F ont size (relative)          0.0150
  W indow/screen size fraction   0.8000
  B lowup input method:        Cursor    
  O rientation of plot:        Landscape 
  C olor PostScript output?     F

      Option, Value   (or <Return>)    c>   ...............................................

  G raphics-enable flag:        F
  S ize of plot object          10.00"
  A spect ratio of plot object   0.5500
  P age dimensions              11.00 x  8.50"
  M argins from page edges       0.00",  0.00"
  F ont size (relative)          0.0150
  W indow/screen size fraction   0.8000
  B lowup input method:        Cursor    
  O rientation of plot:        Landscape 
  C olor PostScript output?     F

      Option, Value   (or <Return>)    c>  
 XFOIL   c>  
 Labeled airfoil file.  Name:  000136                                          

 Number of input coordinate points: 200
 Clockwise ordering
 Max thickness =     0.185604  at x =   0.147
 Max camber    =     0.089598  at x =   0.360

  LE  x,y  =  -0.00001   0.00112  |   Chord =   0.99988
  TE  x,y  =   0.99988   0.00005  |

 Current airfoil nodes set from buffer airfoil nodes ( 200 )

 XFOIL   c>  
 You are working with the buffer airfoil

.GDES   c>  
  i       x        y      angle
   2   0.9990   0.0004    0.057
   3   0.9978   0.0009    0.165
   4   0.9961   0.0017    0.152
   5   0.9938   0.0026    0.191
   6   0.9911   0.0037    0.250
   7   0.9880   0.0050    0.286
   8   0.9843   0.0065    0.299
   9   0.9801   0.0081    0.346
  10   0.9755   0.0099    0.372
  11   0.9704   0.0119    0.375
  12   0.9649   0.0140    0.421
  13   0.9589   0.0162    0.430
  14   0.9524   0.0185    0.438
  15   0.9455   0.0209    0.449
  16   0.9382   0.0234    0.445
  17   0.9304   0.0260    0.461
  18   0.9222   0.0287    0.451
  19   0.9135   0.0314    0.442
  20   0.9045   0.0341    0.428
  21   0.8951   0.0369    0.422
  22   0.8853   0.0398    0.391
  23   0.8751   0.0427    0.382
  24   0.8645   0.0456    0.351
  25   0.8536   0.0485    0.321
  26   0.8423   0.0515    0.296
  27   0.8307   0.0545    0.261
  28   0.8187   0.0575    0.239
  29   0.8065   0.0605    0.199
  30   0.7939   0.0636    0.172
  31   0.7810   0.0667    0.137
  32   0.7679   0.0699    0.108
  33   0.7545   0.0730    0.078
  34   0.7409   0.0762    0.055
  35   0.7270   0.0795    0.032
  36   0.7129   0.0828    0.009
  37   0.6986   0.0861   -0.008
  38   0.6841   0.0895   -0.021
  39   0.6694   0.0930   -0.028
  40   0.6545   0.0965   -0.035
  41   0.6395   0.1000   -0.037
  42   0.6243   0.1036   -0.029
  43   0.6091   0.1072   -0.016
  44   0.5937   0.1108   -0.007
  45   0.5782   0.1145    0.014
  46   0.5627   0.1182    0.045
  47   0.5471   0.1218    0.072
  48   0.5314   0.1255    0.105
  49   0.5157   0.1292    0.151
  50   0.5000   0.1328    0.194
  51   0.4843   0.1363    0.249
  52   0.4686   0.1398    0.297
  53   0.4529   0.1432    0.362
  54   0.4373   0.1465    0.423
  55   0.4218   0.1496    0.498
  56   0.4063   0.1526    0.562
  57   0.3909   0.1554    0.641
  58   0.3757   0.1580    0.722
  59   0.3605   0.1604    0.802
  60   0.3455   0.1626    0.887
  61   0.3306   0.1645    0.974
  62   0.3159   0.1661    1.063
  63   0.3014   0.1674    1.152
  64   0.2871   0.1685    1.250
  65   0.2730   0.1692    1.339
  66   0.2591   0.1695    1.430
  67   0.2455   0.1696    1.525
  68   0.2321   0.1692    1.619
  69   0.2190   0.1685    1.703
  70   0.2061   0.1675    1.794
  71   0.1935   0.1660    1.883
  72   0.1813   0.1642    1.963
  73   0.1693   0.1620    2.041
  74   0.1577   0.1595    2.126
  75   0.1464   0.1565    2.188
  76   0.1355   0.1532    2.268
  77   0.1249   0.1496    2.334
  78   0.1147   0.1456    2.391
  79   0.1049   0.1413    2.466
  80   0.0955   0.1367    2.511
  81   0.0865   0.1317    2.578
  82   0.0778   0.1265    2.637
  83   0.0696   0.1209    2.692
  84   0.0618   0.1152    2.753
  85   0.0545   0.1091    2.804
  86   0.0476   0.1029    2.887
  87   0.0411   0.0964    2.930
  88   0.0351   0.0897    3.003
  89   0.0296   0.0829    3.074
  90   0.0245   0.0758    3.136
  91   0.0199   0.0687    3.209
  92   0.0157   0.0614    3.289
  93   0.0120   0.0539    3.332
  94   0.0089   0.0464    3.419
  95   0.0062   0.0388    3.463
  96   0.0039   0.0311    3.513
  97   0.0022   0.0234    3.563
  98   0.0010   0.0156    3.586
  99   0.0002   0.0078    3.606
 100   0.0000   0.0000    5.061
 101   0.0002  -0.0043    6.504
 102   0.0010  -0.0087    6.541
 103   0.0022  -0.0129    6.600
 104   0.0039  -0.0169    6.619
 105   0.0062  -0.0209    6.626
 106   0.0089  -0.0246    6.605
 107   0.0120  -0.0280    6.457
 108   0.0157  -0.0312    6.276
 109   0.0199  -0.0340    5.982
 110   0.0245  -0.0365    5.622
 111   0.0296  -0.0387    5.215
 112   0.0351  -0.0405    4.780
 113   0.0411  -0.0418    4.307
 114   0.0476  -0.0428    3.874
 115   0.0545  -0.0434    3.422
 116   0.0618  -0.0436    3.017
 117   0.0696  -0.0433    2.620
 118   0.0778  -0.0427    2.274
 119   0.0865  -0.0417    1.950
 120   0.0955  -0.0403    1.640
 121   0.1049  -0.0387    1.371
 122   0.1147  -0.0366    1.129
 123   0.1249  -0.0343    0.892
 124   0.1355  -0.0318    0.693
 125   0.1464  -0.0290    0.497
 126   0.1577  -0.0260    0.330
 127   0.1693  -0.0229    0.166
 128   0.1813  -0.0196    0.032
 129   0.1935  -0.0163   -0.110
 130   0.2061  -0.0129   -0.223
 131   0.2190  -0.0095   -0.328
 132   0.2321  -0.0060   -0.428
 133   0.2455  -0.0026   -0.509
 134   0.2591   0.0007   -0.582
 135   0.2730   0.0039   -0.645
 136   0.2871   0.0070   -0.699
 137   0.3014   0.0100   -0.735
 138   0.3159   0.0129   -0.773
 139   0.3306   0.0155   -0.795
 140   0.3455   0.0180   -0.801
 141   0.3605   0.0203   -0.815
 142   0.3757   0.0224   -0.803
 143   0.3909   0.0243   -0.795
 144   0.4063   0.0259   -0.774
 145   0.4218   0.0274   -0.750
 146   0.4373   0.0287   -0.723
 147   0.4529   0.0298   -0.686
 148   0.4686   0.0307   -0.651
 149   0.4843   0.0314   -0.607
 150   0.5000   0.0320   -0.569
 151   0.5157   0.0324   -0.524
 152   0.5314   0.0327   -0.481
 153   0.5471   0.0328   -0.443
 154   0.5627   0.0328   -0.394
 155   0.5782   0.0327   -0.361
 156   0.5937   0.0325   -0.321
 157   0.6091   0.0323   -0.289
 158   0.6243   0.0319   -0.256
 159   0.6395   0.0315   -0.232
 160   0.6545   0.0310   -0.207
 161   0.6694   0.0305   -0.187
 162   0.6841   0.0299   -0.177
 163   0.6986   0.0293   -0.160
 164   0.7129   0.0287   -0.160
 165   0.7270   0.0280   -0.150
 166   0.7409   0.0273   -0.159
 167   0.7545   0.0266   -0.159
 168   0.7679   0.0259   -0.168
 169   0.7810   0.0251   -0.179
 170   0.7939   0.0243   -0.194
 171   0.8065   0.0235   -0.208
 172   0.8187   0.0227   -0.227
 173   0.8307   0.0218   -0.248
 174   0.8423   0.0209   -0.263
 175   0.8536   0.0200   -0.283
 176   0.8645   0.0191   -0.307
 177   0.8751   0.0181   -0.329
 178   0.8853   0.0171   -0.330
 179   0.8951   0.0161   -0.363
 180   0.9045   0.0150   -0.374
 181   0.9135   0.0140   -0.376
 182   0.9222   0.0129   -0.387
 183   0.9304   0.0119   -0.399
 184   0.9382   0.0108   -0.391
 185   0.9455   0.0097   -0.399
 186   0.9524   0.0087   -0.395
 187   0.9589   0.0077   -0.376
 188   0.9649   0.0067   -0.378
 189   0.9704   0.0057   -0.346
 190   0.9755   0.0048   -0.329
 191   0.9801   0.0040   -0.322
 192   0.9843   0.0032   -0.284
 193   0.9880   0.0025   -0.251
 194   0.9911   0.0018   -0.222
 195   0.9938   0.0013   -0.199
 196   0.9961   0.0008   -0.134
 197   0.9978   0.0005   -0.134
 198   0.9990   0.0002   -0.092
 199   0.9998   0.0001   -0.058

 Maximum panel corner angle =  6.626   at  i,x,y  = 105   0.0062  -0.0209

 Enter corner angle criterion for refinement (deg):   3.313
 Enter type of spline parameter (1=uniform, 2=arclength):   1
 Enter refinement x limits:  -0.10000   1.10000
 Number of points added:           46
 Max thickness =     0.185545  at x =   0.146
 Max camber    =     0.090333  at x =   0.360

 Maximum panel corner angle =  3.209   at  i,x,y  =  91   0.0199   0.0687

.GDES   c>  
 Buffer airfoil is not identical to current airfoil

 XFOIL   c>  
 Blunt trailing edge.  Gap =  0.00027

 Paneling parameters used...
   Number of panel nodes       160
   Panel bunching parameter    1.000
   TE/LE panel density ratio   0.150
   Refined-area/LE panel density ratio    0.200
   Top    side refined area x/c limits  1.000 1.000
   Bottom side refined area x/c limits  1.000 1.000

 XFOIL   c>  
Enter output filename   s>  
 XFOIL   c>  
.OPERi   c>   Current iteration limit:          20

Enter new iteration limit   i>  
Enter new iteration limit   i>  
Enter new iteration limit   i>  
.OPERi   c>  
 M  =    0.0000
 Re =  0.3000E+06

.OPERv   c>  
 Sonic Cp =   -420.65      Sonic Q/Qinf =    22.825


.OPERv   c>  
 Polar  1 newly created for accumulation
 Airfoil archived with polar: 000136                                          

Enter  polar save filename  OR  <return> for no file   s>  
 New polar save file available

Enter  polar dump filename  OR  <return> for no file   s>  
 Polar dump file will NOT be written

 Polar accumulation enabled

.OPERva   c>   Calculating unit vorticity distributions ...
 Calculating wake trajectory ...
 Calculating source influence matrix ...

 Solving BL system ...

 Initializing BL ...
    side            1  ...
 MRCHUE: Inverse mode at  50     Hk =   4.062
 MRCHUE: Inverse mode at  51     Hk =   4.910
 MRCHUE: Inverse mode at  52     Hk =   5.758
 MRCHUE: Inverse mode at  53     Hk =   6.616
 MRCHUE: Inverse mode at  54     Hk =   7.490
 MRCHUE: Inverse mode at  55     Hk =   8.385
 MRCHUE: Inverse mode at  56     Hk =   9.307
 MRCHUE: Inverse mode at  57     Hk =   6.237
 MRCHUE: Inverse mode at  58     Hk =   3.319
 MRCHUE: Convergence failed at  86  side 1    Res =  0.8297E+01
    side            2  ...
 MRCHUE: Inverse mode at  28     Hk =   4.059
 MRCHUE: Inverse mode at  29     Hk =   4.632
 MRCHUE: Inverse mode at  30     Hk =   5.213
 MRCHUE: Inverse mode at  31     Hk =   5.810
 MRCHUE: Inverse mode at  32     Hk =   6.433
 MRCHUE: Inverse mode at  33     Hk =   7.090
 MRCHUE: Inverse mode at  34     Hk =   7.789
 MRCHUE: Inverse mode at  35     Hk =   8.541
 MRCHUE: Inverse mode at  36     Hk =   9.355
 MRCHUE: Inverse mode at  37     Hk =   8.430
 MRCHUE: Inverse mode at  38     Hk =   4.717
 MRCHUE: Inverse mode at  39     Hk =   2.720
 MRCHUE: Inverse mode at  40     Hk =   2.500
 MRCHUE: Inverse mode at  41     Hk =   2.500

 MRCHDU: Convergence failed at  86  side 1    Res =  0.9558E+01
 Side 1  free  transition at x/c =  0.3340   57
 Side 2  free  transition at x/c =  0.1739   37

   1   rms: 0.3364E+00   max: 0.2821E+01   T at   37  2   RLX: 0.366
       a =  2.000      CL =  1.2434
      Cm = -0.1780     CD =  0.01347   =>   CDf =  0.00886    CDp =  0.00461

 Side 1  free  transition at x/c =  0.3391   56
 Side 2  free  transition at x/c =  0.1575   37

   2   rms: 0.2069E+00   max: -.1030E+01   D at   77  2   RLX: 0.485
       a =  2.000      CL =  1.1830
      Cm = -0.1658     CD =  0.01681   =>   CDf =  0.00841    CDp =  0.00840

 Side 1  free  transition at x/c =  0.3438   56
 Side 2  free  transition at x/c =  0.1522   37

   3   rms: 0.1220E+00   max: -.5922E+00   D at   42  2   RLX: 0.844
       a =  2.000      CL =  1.1689
      Cm = -0.1624     CD =  0.01948   =>   CDf =  0.00860    CDp =  0.01088

 Side 1  free  transition at x/c =  0.3475   57
 Side 2  free  transition at x/c =  0.1505   37

   4   rms: 0.3788E-01   max: 0.3006E+00   T at   37  2
       a =  2.000      CL =  1.1781
      Cm = -0.1636     CD =  0.02086   =>   CDf =  0.00878    CDp =  0.01208

 Side 1  free  transition at x/c =  0.3478   57
 Side 2  free  transition at x/c =  0.1488   36

   5   rms: 0.2437E-01   max: 0.2914E+00   D at   37  2
       a =  2.000      CL =  1.1785
      Cm = -0.1639     CD =  0.02056   =>   CDf =  0.00875    CDp =  0.01181

 Side 1  free  transition at x/c =  0.3478   57
 Side 2  free  transition at x/c =  0.1486   36

   6   rms: 0.9417E-02   max: 0.6742E-01   D at   37  2
       a =  2.000      CL =  1.1786
      Cm = -0.1640     CD =  0.02050   =>   CDf =  0.00873    CDp =  0.01176

 Side 1  free  transition at x/c =  0.3477   57
 Side 2  free  transition at x/c =  0.1485   36

   7   rms: 0.4313E-03   max: 0.3327E-02   D at   38  2
       a =  2.000      CL =  1.1786
      Cm = -0.1640     CD =  0.02049   =>   CDf =  0.00871    CDp =  0.01178

 Side 1  free  transition at x/c =  0.3477   57
 Side 2  free  transition at x/c =  0.1485   36

   8   rms: 0.2283E-05   max: 0.1587E-04   D at   38  2
       a =  2.000      CL =  1.1786
      Cm = -0.1640     CD =  0.02049   =>   CDf =  0.00871    CDp =  0.01178

 Point added to stored polar  1
 Point written to save file  000136M0.04.log                                 
 Dump file unspecified or not available
 Calculating wake trajectory ...
 Calculating source influence matrix ...

 Solving BL system ...

 Side 1  free  transition at x/c =  0.3477   57
 Side 2  free  transition at x/c =  0.1485   36

   1   rms: 0.1699E+00   max: -.1223E+01   T at   36  2   RLX: 0.409
       a =  3.000      CL =  1.2268
      Cm = -0.1640     CD =  0.02083   =>   CDf =  0.00854    CDp =  0.01229

 Side 1  free  transition at x/c =  0.3436   57
 Side 2  free  transition at x/c =  0.1579   36

   2   rms: 0.1173E+00   max: 0.1043E+01   D at   36  2
       a =  3.000      CL =  1.2900
      Cm = -0.1628     CD =  0.02090   =>   CDf =  0.00884    CDp =  0.01206

 Side 1  free  transition at x/c =  0.3359   57
 Side 2  free  transition at x/c =  0.1630   36

   3   rms: 0.1125E-01   max: -.1135E+00   D at   37  2
       a =  3.000      CL =  1.2915
      Cm = -0.1631     CD =  0.02090   =>   CDf =  0.00876    CDp =  0.01215

 Side 1  free  transition at x/c =  0.3362   57
 Side 2  free  transition at x/c =  0.1640   37

   4   rms: 0.1208E-01   max: 0.9660E-01   D at   37  2
       a =  3.000      CL =  1.2917
      Cm = -0.1632     CD =  0.02083   =>   CDf =  0.00877    CDp =  0.01206

 Side 1  free  transition at x/c =  0.3362   57
 Side 2  free  transition at x/c =  0.1640   37

   5   rms: 0.6114E-03   max: 0.3831E-02   D at   37  2
       a =  3.000      CL =  1.2917
      Cm = -0.1632     CD =  0.02083   =>   CDf =  0.00876    CDp =  0.01208

 Side 1  free  transition at x/c =  0.3362   57
 Side 2  free  transition at x/c =  0.1640   37

   6   rms: 0.2065E-05   max: 0.2424E-04   T at   37  2
       a =  3.000      CL =  1.2917
      Cm = -0.1632     CD =  0.02083   =>   CDf =  0.00876    CDp =  0.01208

 Point added to stored polar  1
 Point written to save file  000136M0.04.log                                 
 Dump file unspecified or not available
 Calculating wake trajectory ...
 Calculating source influence matrix ...

 Solving BL system ...

 Side 1  free  transition at x/c =  0.3362   57
 Side 2  free  transition at x/c =  0.1640   37

   1   rms: 0.2352E+00   max: -.1771E+01   T at   37  2   RLX: 0.282
       a =  4.000      CL =  1.3245
      Cm = -0.1635     CD =  0.02047   =>   CDf =  0.00857    CDp =  0.01189

 Side 1  free  transition at x/c =  0.3332   58
 Side 2  free  transition at x/c =  0.1707   36

   2   rms: 0.1110E+00   max: -.5740E+00   T at   36  2   RLX: 0.871
       a =  4.000      CL =  1.3930
      Cm = -0.1624     CD =  0.02133   =>   CDf =  0.00846    CDp =  0.01288

 Side 1  free  transition at x/c =  0.3275   58
 Side 2  free  transition at x/c =  0.1812   36

   3   rms: 0.1410E-01   max: -.9259E-01   C at   58  1
       a =  4.000      CL =  1.4025
      Cm = -0.1622     CD =  0.02153   =>   CDf =  0.00888    CDp =  0.01265

 Side 1  free  transition at x/c =  0.3258   58
 Side 2  free  transition at x/c =  0.1820   36

   4   rms: 0.2995E-03   max: 0.2720E-02   D at   58  1
       a =  4.000      CL =  1.4027
      Cm = -0.1623     CD =  0.02156   =>   CDf =  0.00881    CDp =  0.01275

 Side 1  free  transition at x/c =  0.3258   58
 Side 2  free  transition at x/c =  0.1820   36

   5   rms: 0.1340E-05   max: 0.7743E-05   D at   88  1
       a =  4.000      CL =  1.4027
      Cm = -0.1623     CD =  0.02156   =>   CDf =  0.00881    CDp =  0.01275

 Point added to stored polar  1
 Point written to save file  000136M0.04.log                                 
 Dump file unspecified or not available
 Calculating wake trajectory ...
 Calculating source influence matrix ...

 Solving BL system ...

 Side 1  free  transition at x/c =  0.3258   58
 Side 2  free  transition at x/c =  0.1820   36

   1   rms: 0.1425E+00   max: -.1014E+01   T at   36  2   RLX: 0.493
       a =  5.000      CL =  1.4544
      Cm = -0.1614     CD =  0.02185   =>   CDf =  0.00882    CDp =  0.01303

 Side 1  free  transition at x/c =  0.3201   58
 Side 2  free  transition at x/c =  0.1913   36

   2   rms: 0.9464E-01   max: -.7328E+00   T at   36  2   RLX: 0.682
       a =  5.000      CL =  1.4918
      Cm = -0.1607     CD =  0.02248   =>   CDf =  0.00847    CDp =  0.01401

 Side 1  free  transition at x/c =  0.3168   59
 Side 2  free  transition at x/c =  0.2018   36

   3   rms: 0.5235E-01   max: 0.6959E+00   D at   36  2
       a =  5.000      CL =  1.5098
      Cm = -0.1608     CD =  0.02225   =>   CDf =  0.00874    CDp =  0.01350

 Side 1  free  transition at x/c =  0.3154   59
 Side 2  free  transition at x/c =  0.2040   36

   4   rms: 0.4922E-02   max: 0.4071E-01   D at   36  2
       a =  5.000      CL =  1.5098
      Cm = -0.1608     CD =  0.02225   =>   CDf =  0.00875    CDp =  0.01351

 Side 1  free  transition at x/c =  0.3155   59
 Side 2  free  transition at x/c =  0.2038   36

   5   rms: 0.3854E-04   max: 0.4497E-03   D at   37  2
       a =  5.000      CL =  1.5098
      Cm = -0.1608     CD =  0.02225   =>   CDf =  0.00874    CDp =  0.01351

 Point added to stored polar  1
 Point written to save file  000136M0.04.log                                 
 Dump file unspecified or not available
 Calculating wake trajectory ...
 Calculating source influence matrix ...

 Solving BL system ...

 Side 1  free  transition at x/c =  0.3155   59
 Side 2  free  transition at x/c =  0.2038   36

   1   rms: 0.1425E+00   max: -.9938E+00   T at   36  2   RLX: 0.503
       a =  6.000      CL =  1.5631
      Cm = -0.1601     CD =  0.02279   =>   CDf =  0.00852    CDp =  0.01428

 Side 1  free  transition at x/c =  0.3110   59
 Side 2  free  transition at x/c =  0.2165   36

   2   rms: 0.7163E-01   max: -.5440E+00   T at   36  2   RLX: 0.919
       a =  6.000      CL =  1.6078
      Cm = -0.1589     CD =  0.02329   =>   CDf =  0.00885    CDp =  0.01444

 Side 1  free  transition at x/c =  0.3060   59
 Side 2  free  transition at x/c =  0.2272   36

   3   rms: 0.4469E-01   max: -.3251E+00   D at   36  2
       a =  6.000      CL =  1.6127
      Cm = -0.1589     CD =  0.02352   =>   CDf =  0.00868    CDp =  0.01484

 Side 1  free  transition at x/c =  0.3055   59
 Side 2  free  transition at x/c =  0.2302   37

   4   rms: 0.3192E-02   max: 0.5640E-01   D at   37  2
       a =  6.000      CL =  1.6129
      Cm = -0.1590     CD =  0.02348   =>   CDf =  0.00868    CDp =  0.01480

 Side 1  free  transition at x/c =  0.3055   59
 Side 2  free  transition at x/c =  0.2302   37

   5   rms: 0.1998E-03   max: 0.1868E-02   D at   37  2
       a =  6.000      CL =  1.6129
      Cm = -0.1590     CD =  0.02348   =>   CDf =  0.00868    CDp =  0.01480

 Side 1  free  transition at x/c =  0.3055   59
 Side 2  free  transition at x/c =  0.2302   37

   6   rms: 0.1156E-05   max: -.5057E-05   T at   69  2
       a =  6.000      CL =  1.6129
      Cm = -0.1590     CD =  0.02348   =>   CDf =  0.00868    CDp =  0.01480

 Point added to stored polar  1
 Point written to save file  000136M0.04.log                                 
 Dump file unspecified or not available
 Calculating wake trajectory ...
 Calculating source influence matrix ...

 Solving BL system ...

 Side 1  free  transition at x/c =  0.3055   59
 Side 2  free  transition at x/c =  0.2302   37

   1   rms: 0.2314E+00   max: -.1571E+01   T at   37  2   RLX: 0.318
       a =  7.000      CL =  1.6465
      Cm = -0.1589     CD =  0.02350   =>   CDf =  0.00844    CDp =  0.01506

 Side 1  free  transition at x/c =  0.3024   60
 Side 2  free  transition at x/c =  0.2457   36

   2   rms: 0.9501E-01   max: -.6049E+00   T at   36  2   RLX: 0.827
       a =  7.000      CL =  1.7017
      Cm = -0.1572     CD =  0.02451   =>   CDf =  0.00862    CDp =  0.01589

 MRCHDU: Convergence failed at  38  side 2    Res =  0.3039E+01
 MRCHDU: Convergence failed at  39  side 2    Res =  0.4329E+01
 MRCHDU: Convergence failed at  40  side 2    Res =  0.2767E+01
 MRCHDU: Convergence failed at  41  side 2    Res =  0.4075E+01
 MRCHDU: Convergence failed at  42  side 2    Res =  0.5119E+01
 MRCHDU: Convergence failed at  43  side 2    Res =  0.5661E+01
 MRCHDU: Convergence failed at  44  side 2    Res =  0.5563E+01
 MRCHDU: Convergence failed at  45  side 2    Res =  0.5046E+01
 MRCHDU: Convergence failed at  46  side 2    Res =  0.4349E+01
 MRCHDU: Convergence failed at  47  side 2    Res =  0.3650E+01
 MRCHDU: Convergence failed at  48  side 2    Res =  0.2970E+01
 MRCHDU: Convergence failed at  49  side 2    Res =  0.2387E+01
 MRCHDU: Convergence failed at  50  side 2    Res =  0.4079E+01
 MRCHDU: Convergence failed at  51  side 2    Res =  0.3811E+01
 MRCHDU: Convergence failed at  52  side 2    Res =  0.3484E+01
 MRCHDU: Convergence failed at  53  side 2    Res =  0.7803E+01
 Side 1  free  transition at x/c =  0.2971   60
 Side 2  free  transition at x/c =  0.2649   37

   3   rms: 0.1209E+00   max: -.7920E+00   D at   53  2   RLX: 0.631
       a =  7.000      CL =  1.6985
      Cm = -0.1558     CD =  0.02441   =>   CDf =  0.00787    CDp =  0.01654

 Side 1  free  transition at x/c =  0.2965   60
 Side 2  free  transition at x/c =  0.2527   37

   4   rms: 0.7282E-01   max: -.8450E+00   D at   40  2   RLX: 0.592
       a =  7.000      CL =  1.7104
      Cm = -0.1567     CD =  0.02529   =>   CDf =  0.00901    CDp =  0.01627

 Side 1  free  transition at x/c =  0.2963   60
 Side 2  free  transition at x/c =  0.2587   37

   5   rms: 0.7576E-01   max: -.8475E+00   D at   40  2   RLX: 0.590
       a =  7.000      CL =  1.7131
      Cm = -0.1570     CD =  0.02494   =>   CDf =  0.00881    CDp =  0.01613

 Side 1  free  transition at x/c =  0.2962   60
 Side 2  free  transition at x/c =  0.2648   37

   6   rms: 0.4293E-01   max: -.6666E+00   D at   40  2   RLX: 0.750
       a =  7.000      CL =  1.7150
      Cm = -0.1573     CD =  0.02479   =>   CDf =  0.00872    CDp =  0.01607

 Side 1  free  transition at x/c =  0.2961   60
 Side 2  free  transition at x/c =  0.2666   37

   7   rms: 0.1713E-01   max: -.3454E+00   D at   40  2
       a =  7.000      CL =  1.7157
      Cm = -0.1575     CD =  0.02478   =>   CDf =  0.00870    CDp =  0.01608

 Side 1  free  transition at x/c =  0.2961   60
 Side 2  free  transition at x/c =  0.2656   37

   8   rms: 0.2738E-02   max: -.5575E-01   D at   40  2
       a =  7.000      CL =  1.7157
      Cm = -0.1575     CD =  0.02479   =>   CDf =  0.00870    CDp =  0.01609

 Side 1  free  transition at x/c =  0.2961   60
 Side 2  free  transition at x/c =  0.2653   37

   9   rms: 0.7001E-04   max: -.1377E-02   D at   40  2
       a =  7.000      CL =  1.7157
      Cm = -0.1575     CD =  0.02479   =>   CDf =  0.00870    CDp =  0.01609

 Point added to stored polar  1
 Point written to save file  000136M0.04.log                                 
 Dump file unspecified or not available
 Calculating wake trajectory ...
 Calculating source influence matrix ...

 Solving BL system ...

 Side 1  free  transition at x/c =  0.2961   60
 Side 2  free  transition at x/c =  0.2653   37

   1   rms: 0.1594E+00   max: -.1201E+01   T at   37  2   RLX: 0.416
       a =  8.000      CL =  1.7621
      Cm = -0.1577     CD =  0.02616   =>   CDf =  0.00844    CDp =  0.01772

 MRCHDU: Convergence failed at  38  side 2    Res =  0.2208E+01
 MRCHDU: Convergence failed at  39  side 2    Res =  0.3543E+01
 MRCHDU: Convergence failed at  40  side 2    Res =  0.2644E+01
 MRCHDU: Convergence failed at  41  side 2    Res =  0.2482E+01
 MRCHDU: Convergence failed at  42  side 2    Res =  0.2650E+01
 MRCHDU: Convergence failed at  43  side 2    Res =  0.2615E+01
 MRCHDU: Convergence failed at  44  side 2    Res =  0.2390E+01
 MRCHDU: Convergence failed at  45  side 2    Res =  0.2085E+01
 MRCHDU: Convergence failed at  46  side 2    Res =  0.2654E+01
 MRCHDU: Convergence failed at  47  side 2    Res =  0.2447E+01
 MRCHDU: Convergence failed at  48  side 2    Res =  0.2230E+01
 MRCHDU: Convergence failed at  49  side 2    Res =  0.2613E+01
 MRCHDU: Convergence failed at  50  side 2    Res =  0.6499E+03
 Side 1  free  transition at x/c =  0.2921   60
 Side 2  free  transition at x/c =  0.2874   37

   2   rms: 0.1475E+00   max: -.8903E+00   D at   50  2   RLX: 0.562
       a =  8.000      CL =  1.7765
      Cm = -0.1545     CD =  0.02578   =>   CDf =  0.00798    CDp =  0.01780

 Side 1  free  transition at x/c =  0.2893   60
 Side 2  free  transition at x/c =  0.3004   38

   3   rms: 0.4969E-01   max: 0.3852E+00   D at   41  2
       a =  8.000      CL =  1.8049
      Cm = -0.1541     CD =  0.02633   =>   CDf =  0.00815    CDp =  0.01818

 Side 1  free  transition at x/c =  0.2871   61
 Side 2  free  transition at x/c =  0.3125   38

   4   rms: 0.7083E-02   max: -.9360E-01   D at   37  2
       a =  8.000      CL =  1.8056
      Cm = -0.1543     CD =  0.02628   =>   CDf =  0.00833    CDp =  0.01796

 Side 1  free  transition at x/c =  0.2872   61
 Side 2  free  transition at x/c =  0.3141   38

   5   rms: 0.5723E-03   max: 0.6790E-02   D at   38  2
       a =  8.000      CL =  1.8057
      Cm = -0.1543     CD =  0.02628   =>   CDf =  0.00830    CDp =  0.01798

 Side 1  free  transition at x/c =  0.2872   61
 Side 2  free  transition at x/c =  0.3139   38

   6   rms: 0.2636E-05   max: -.4811E-04   D at   39  2
       a =  8.000      CL =  1.8057
      Cm = -0.1543     CD =  0.02628   =>   CDf =  0.00830    CDp =  0.01798

 Point added to stored polar  1
 Point written to save file  000136M0.04.log                                 
 Dump file unspecified or not available
 Calculating wake trajectory ...
 Calculating source influence matrix ...

 Solving BL system ...

 Side 1  free  transition at x/c =  0.2872   61
 Side 2  free  transition at x/c =  0.3139   38

   1   rms: 0.1606E+00   max: -.1323E+01   T at   38  2   RLX: 0.378
       a =  9.000      CL =  1.8399
      Cm = -0.1532     CD =  0.02682   =>   CDf =  0.00833    CDp =  0.01849

 Side 1  free  transition at x/c =  0.2838   61
 Side 2  free  transition at x/c =  0.3379   39

   2   rms: 0.1081E+00   max: -.9671E+00   T at   39  2   RLX: 0.517
       a =  9.000      CL =  1.8702
      Cm = -0.1525     CD =  0.02750   =>   CDf =  0.00830    CDp =  0.01920

 Side 1  free  transition at x/c =  0.2814   61
 Side 2  free  transition at x/c =  0.3661   41

   3   rms: 0.1338E+00   max: -.1213E+01   C at   41  2   RLX: 0.412
       a =  9.000      CL =  1.8874
      Cm = -0.1533     CD =  0.02787   =>   CDf =  0.00803    CDp =  0.01984

 Side 1  free  transition at x/c =  0.2802   61
 Side 2  free  transition at x/c =  0.4020   41

   4   rms: 0.1742E+00   max: -.3537E+01   C at   41  2   RLX: 0.141
       a =  9.000      CL =  1.8891
      Cm = -0.1532     CD =  0.02793   =>   CDf =  0.00824    CDp =  0.01969

 Side 1  free  transition at x/c =  0.2800   61
 Side 2  free  transition at x/c =  0.4040   41

   5   rms: 0.4790E-01   max: -.5586E+00   T at   41  2   RLX: 0.895
       a =  9.000      CL =  1.8955
      Cm = -0.1519     CD =  0.02814   =>   CDf =  0.00827    CDp =  0.01987

 Side 1  free  transition at x/c =  0.2789   61
 Side 2 forced transition at x/c =  1.0001   68

   6   rms: 0.3873E-01   max: 0.5075E+00   D at   41  2
       a =  9.000      CL =  1.8907
      Cm = -0.1506     CD =  0.02751   =>   CDf =  0.00749    CDp =  0.02003

 Side 1  free  transition at x/c =  0.2789   61
 Side 2 forced transition at x/c =  1.0001   68

   7   rms: 0.7231E-02   max: 0.6116E-01   D at   40  2
       a =  9.000      CL =  1.8906
      Cm = -0.1506     CD =  0.02751   =>   CDf =  0.00749    CDp =  0.02002

 Side 1  free  transition at x/c =  0.2789   61
 Side 2 forced transition at x/c =  1.0001   68

   8   rms: 0.6242E-03   max: 0.4428E-02   D at   39  2
       a =  9.000      CL =  1.8906
      Cm = -0.1506     CD =  0.02751   =>   CDf =  0.00748    CDp =  0.02003

 Side 1  free  transition at x/c =  0.2789   61
 Side 2 forced transition at x/c =  1.0001   68

   9   rms: 0.4867E-05   max: 0.3564E-04   D at   39  2
       a =  9.000      CL =  1.8906
      Cm = -0.1506     CD =  0.02751   =>   CDf =  0.00748    CDp =  0.02003

 Point added to stored polar  1
 Point written to save file  000136M0.04.log                                 
 Dump file unspecified or not available
 Calculating wake trajectory ...
 Calculating source influence matrix ...

 Solving BL system ...

 Side 1  free  transition at x/c =  0.2789   61
 Side 2 forced transition at x/c =  1.0001   68

   1   rms: 0.1841E+00   max: -.6529E+00   n at   53  2   RLX: 0.766
       a = 10.000      CL =  1.9396
      Cm = -0.1455     CD =  0.02943   =>   CDf =  0.00719    CDp =  0.02224

 Side 1  free  transition at x/c =  0.2722   62
 Side 2 forced transition at x/c =  1.0001   67

   2   rms: 0.2962E-01   max: 0.1098E+00   D at   34  2
       a = 10.000      CL =  1.9503
      Cm = -0.1434     CD =  0.03003   =>   CDf =  0.00741    CDp =  0.02262

 Side 1  free  transition at x/c =  0.2708   62
 Side 2 forced transition at x/c =  1.0001   67

   3   rms: 0.3150E-02   max: 0.1971E-01   D at   34  2
       a = 10.000      CL =  1.9509
      Cm = -0.1436     CD =  0.03001   =>   CDf =  0.00737    CDp =  0.02264

 Side 1  free  transition at x/c =  0.2708   62
 Side 2 forced transition at x/c =  1.0001   67

   4   rms: 0.1089E-03   max: 0.5894E-03   D at   34  2
       a = 10.000      CL =  1.9510
      Cm = -0.1436     CD =  0.03001   =>   CDf =  0.00737    CDp =  0.02264

 Side 1  free  transition at x/c =  0.2708   62
 Side 2 forced transition at x/c =  1.0001   67

   5   rms: 0.1017E-05   max: 0.1367E-04   C at   67  2
       a = 10.000      CL =  1.9510
      Cm = -0.1436     CD =  0.03001   =>   CDf =  0.00737    CDp =  0.02264

 Point added to stored polar  1
 Point written to save file  000136M0.04.log                                 
 Dump file unspecified or not available
 Calculating wake trajectory ...
 Calculating source influence matrix ...

 Solving BL system ...

 Side 1  free  transition at x/c =  0.2708   62
 Side 2 forced transition at x/c =  1.0001   67

   1   rms: 0.1199E+00   max: -.2039E+00   n at   41  2
       a = 11.000      CL =  2.0137
      Cm = -0.1374     CD =  0.03250   =>   CDf =  0.00707    CDp =  0.02543

 Side 1  free  transition at x/c =  0.2647   62
 Side 2 forced transition at x/c =  1.0001   66

   2   rms: 0.1407E-01   max: -.8420E-01   C at   62  1
       a = 11.000      CL =  2.0022
      Cm = -0.1367     CD =  0.03353   =>   CDf =  0.00740    CDp =  0.02613

 Side 1  free  transition at x/c =  0.2635   62
 Side 2 forced transition at x/c =  1.0001   66

   3   rms: 0.2519E-02   max: -.1321E-01   D at   93  1
       a = 11.000      CL =  2.0046
      Cm = -0.1370     CD =  0.03347   =>   CDf =  0.00731    CDp =  0.02616

 Side 1  free  transition at x/c =  0.2634   62
 Side 2 forced transition at x/c =  1.0001   66

   4   rms: 0.1045E-04   max: 0.1208E-03   C at   66  2
       a = 11.000      CL =  2.0046
      Cm = -0.1370     CD =  0.03348   =>   CDf =  0.00732    CDp =  0.02616

 Point added to stored polar  1
 Point written to save file  000136M0.04.log                                 
 Dump file unspecified or not available
 Calculating wake trajectory ...
 Calculating source influence matrix ...

 Solving BL system ...

 Side 1  free  transition at x/c =  0.2634   62
 Side 2 forced transition at x/c =  1.0001   66

   1   rms: 0.1115E+00   max: 0.3475E+00   D at   88  1   RLX: 0.900
       a = 12.000      CL =  2.0239
      Cm = -0.1288     CD =  0.03794   =>   CDf =  0.00700    CDp =  0.03095

 Side 1  free  transition at x/c =  0.2558   63
 Side 2 forced transition at x/c =  1.0001   65

   2   rms: 0.2094E-01   max: -.1417E+00   D at   63  1
       a = 12.000      CL =  2.0366
      Cm = -0.1301     CD =  0.03824   =>   CDf =  0.00713    CDp =  0.03111

 Side 1  free  transition at x/c =  0.2558   63
 Side 2 forced transition at x/c =  1.0001   65

   3   rms: 0.1057E-02   max: -.6460E-02   D at   78  2
       a = 12.000      CL =  2.0376
      Cm = -0.1302     CD =  0.03823   =>   CDf =  0.00710    CDp =  0.03113

 Side 1  free  transition at x/c =  0.2558   63
 Side 2 forced transition at x/c =  1.0001   65

   4   rms: 0.1279E-04   max: 0.8138E-04   D at   89  1
       a = 12.000      CL =  2.0376
      Cm = -0.1302     CD =  0.03823   =>   CDf =  0.00710    CDp =  0.03113

 Point added to stored polar  1
 Point written to save file  000136M0.04.log                                 
 Dump file unspecified or not available
 Calculating wake trajectory ...
 Calculating source influence matrix ...

 Solving BL system ...

 Side 1  free  transition at x/c =  0.2558   63
 Side 2 forced transition at x/c =  1.0001   65

   1   rms: 0.1095E+00   max: 0.2016E+00   D at   77  2   RLX: 0.815
       a = 13.000      CL =  2.0776
      Cm = -0.1268     CD =  0.04193   =>   CDf =  0.00677    CDp =  0.03516

 Side 1  free  transition at x/c =  0.2512   63
 Side 2 forced transition at x/c =  1.0001   64

   2   rms: 0.3730E-01   max: 0.1806E+00   D at   89  1
       a = 13.000      CL =  2.0524
      Cm = -0.1250     CD =  0.04579   =>   CDf =  0.00708    CDp =  0.03871

 Side 1  free  transition at x/c =  0.2487   63
 Side 2 forced transition at x/c =  1.0001   64

   3   rms: 0.5438E-02   max: -.3751E-01   D at   89  1
       a = 13.000      CL =  2.0570
      Cm = -0.1256     CD =  0.04547   =>   CDf =  0.00685    CDp =  0.03863

 Side 1  free  transition at x/c =  0.2486   63
 Side 2 forced transition at x/c =  1.0001   64

   4   rms: 0.2684E-03   max: -.1422E-02   D at   75  2
       a = 13.000      CL =  2.0573
      Cm = -0.1256     CD =  0.04548   =>   CDf =  0.00685    CDp =  0.03863

 Side 1  free  transition at x/c =  0.2486   63
 Side 2 forced transition at x/c =  1.0001   64

   5   rms: 0.6943E-05   max: 0.9157E-04   C at   64  2
       a = 13.000      CL =  2.0573
      Cm = -0.1256     CD =  0.04548   =>   CDf =  0.00685    CDp =  0.03863

 Point added to stored polar  1
 Point written to save file  000136M0.04.log                                 
 Dump file unspecified or not available
 Calculating wake trajectory ...
 Calculating source influence matrix ...

 Solving BL system ...

 Side 1  free  transition at x/c =  0.2486   63
 Side 2 forced transition at x/c =  1.0001   64

   1   rms: 0.1253E+00   max: 0.5153E+00   D at   85  1   RLX: 0.643
       a = 14.000      CL =  2.0460
      Cm = -0.1234     CD =  0.05304   =>   CDf =  0.00689    CDp =  0.04615

 Side 1  free  transition at x/c =  0.2432   63
 Side 2 forced transition at x/c =  1.0001   64

   2   rms: 0.3850E-01   max: 0.1486E+00   D at   84  1
       a = 14.000      CL =  2.0633
      Cm = -0.1235     CD =  0.05514   =>   CDf =  0.00664    CDp =  0.04850

 Side 1  free  transition at x/c =  0.2411   63
 Side 2 forced transition at x/c =  1.0001   64

   3   rms: 0.5722E-02   max: -.3462E-01   D at   85  1
       a = 14.000      CL =  2.0676
      Cm = -0.1235     CD =  0.05451   =>   CDf =  0.00661    CDp =  0.04790

 Side 1  free  transition at x/c =  0.2411   63
 Side 2 forced transition at x/c =  1.0001   64

   4   rms: 0.5790E-03   max: -.2480E-02   D at   77  2
       a = 14.000      CL =  2.0681
      Cm = -0.1235     CD =  0.05452   =>   CDf =  0.00663    CDp =  0.04789

 Side 1  free  transition at x/c =  0.2411   63
 Side 2 forced transition at x/c =  1.0001   64

   5   rms: 0.9876E-04   max: -.2235E-02   D at    2  2
       a = 14.000      CL =  2.0681
      Cm = -0.1235     CD =  0.05452   =>   CDf =  0.00663    CDp =  0.04789

 Point added to stored polar  1
 Point written to save file  000136M0.04.log                                 
 Dump file unspecified or not available
 Calculating wake trajectory ...
 Calculating source influence matrix ...

 Solving BL system ...

 Side 1  free  transition at x/c =  0.2411   63
 Side 2 forced transition at x/c =  1.0001   64

   1   rms: 0.1865E+00   max: 0.2507E+01   T at    2  2   RLX: 0.320
       a = 15.000      CL =  2.0837
      Cm = -0.1230     CD =  0.05640   =>   CDf =  0.00628    CDp =  0.05012

 Side 1  free  transition at x/c =  0.2391   64
 Side 2 forced transition at x/c =  1.0001   63

   2   rms: 0.1084E+00   max: -.8687E-01   C at   64  2
       a = 15.000      CL =  2.1769
      Cm = -0.1199     CD =  0.05376   =>   CDf =  0.00631    CDp =  0.04744

 Side 1  free  transition at x/c =  0.2341   64
 Side 2 forced transition at x/c =  1.0001   62

   3   rms: 0.1752E+00   max: 0.8138E+00   D at   88  1
       a = 15.000      CL =  2.0231
      Cm = -0.1236     CD =  0.07157   =>   CDf =  0.00703    CDp =  0.06454

 Side 1  free  transition at x/c =  0.2334   63
 Side 2 forced transition at x/c =  1.0001   63

   4   rms: 0.3465E-01   max: 0.3440E+00   D at   82  1
       a = 15.000      CL =  2.0133
      Cm = -0.1251     CD =  0.07354   =>   CDf =  0.00619    CDp =  0.06735

 Side 1  free  transition at x/c =  0.2326   63
 Side 2 forced transition at x/c =  1.0001   63

   5   rms: 0.3822E-02   max: 0.4626E-01   D at   80  1
       a = 15.000      CL =  2.0141
      Cm = -0.1249     CD =  0.07264   =>   CDf =  0.00607    CDp =  0.06657

 Side 1  free  transition at x/c =  0.2326   63
 Side 2 forced transition at x/c =  1.0001   63

   6   rms: 0.3869E-03   max: -.2468E-02   D at   80  1
       a = 15.000      CL =  2.0144
      Cm = -0.1249     CD =  0.07257   =>   CDf =  0.00607    CDp =  0.06650

 Side 1  free  transition at x/c =  0.2326   63
 Side 2 forced transition at x/c =  1.0001   63

   7   rms: 0.3302E-04   max: -.1591E-03   D at   77  2
       a = 15.000      CL =  2.0144
      Cm = -0.1249     CD =  0.07258   =>   CDf =  0.00607    CDp =  0.06650

 Point added to stored polar  1
 Point written to save file  000136M0.04.log                                 
 Dump file unspecified or not available

.OPERva   c>  
 XFOIL   c>  
0.1
resp: 
 ===================================================
  XFOIL Version 6.97
  Copyright (C) 2000   Mark Drela, Harold Youngren

  This software comes with ABSOLUTELY NO WARRANTY,
    subject to the GNU General Public License.

  Caveat computor
 ===================================================

 File  xfoil.def  not found

   QUIT    Exit program

  .OPER    Direct operating point(s)
  .MDES    Complex mapping design routine
  .QDES    Surface speed design routine
  .GDES    Geometry design routine

   SAVE f  Write airfoil to labeled coordinate file
   PSAV f  Write airfoil to plain coordinate file
   ISAV f  Write airfoil to ISES coordinate file
   MSAV f  Write airfoil to MSES coordinate file
   REVE    Reverse written-airfoil node ordering
   DELI i  Change written-airfoil file delimiters

   LOAD f  Read buffer airfoil from coordinate file
   NACA i  Set NACA 4,5-digit airfoil and buffer airfoil
   INTE    Set buffer airfoil by interpolating two airfoils
   NORM    Buffer airfoil normalization toggle
   HALF    Halve the number of points in buffer airfoil
   XYCM rr Change CM reference location, currently  0.25000 0.00000

   BEND    Display structural properties of current airfoil

   PCOP    Set current-airfoil panel nodes directly from buffer airfoil points
   PANE    Set current-airfoil panel nodes ( 160 ) based on curvature
  .PPAR    Show/change paneling

  .PLOP    Plotting options

   WDEF f  Write  current-settings file
   RDEF f  Reread current-settings file
   NAME s  Specify new airfoil name
   NINC    Increment name version number

   Z       Zoom    | (available in all menus)
   U       Unzoom  | 

 XFOIL   c>   ...............................................

  G raphics-enable flag:        T
  S ize of plot object          10.00"
  A spect ratio of plot object   0.5500
  P age dimensions              11.00 x  8.50"
  M argins from page edges       0.00",  0.00"
  F ont size (relative)          0.0150
  W indow/screen size fraction   0.8000
  B lowup input method:        Cursor    
  O rientation of plot:        Landscape 
  C olor PostScript output?     F

      Option, Value   (or <Return>)    c>   ...............................................

  G raphics-enable flag:        F
  S ize of plot object          10.00"
  A spect ratio of plot object   0.5500
  P age dimensions              11.00 x  8.50"
  M argins from page edges       0.00",  0.00"
  F ont size (relative)          0.0150
  W indow/screen size fraction   0.8000
  B lowup input method:        Cursor    
  O rientation of plot:        Landscape 
  C olor PostScript output?     F

      Option, Value   (or <Return>)    c>  
 XFOIL   c>  
 Labeled airfoil file.  Name:  000136                                          

 Number of input coordinate points: 200
 Clockwise ordering
 Max thickness =     0.185604  at x =   0.147
 Max camber    =     0.089598  at x =   0.360

  LE  x,y  =  -0.00001   0.00112  |   Chord =   0.99988
  TE  x,y  =   0.99988   0.00005  |

 Current airfoil nodes set from buffer airfoil nodes ( 200 )

 XFOIL   c>  
 You are working with the buffer airfoil

.GDES   c>  
  i       x        y      angle
   2   0.9990   0.0004    0.057
   3   0.9978   0.0009    0.165
   4   0.9961   0.0017    0.152
   5   0.9938   0.0026    0.191
   6   0.9911   0.0037    0.250
   7   0.9880   0.0050    0.286
   8   0.9843   0.0065    0.299
   9   0.9801   0.0081    0.346
  10   0.9755   0.0099    0.372
  11   0.9704   0.0119    0.375
  12   0.9649   0.0140    0.421
  13   0.9589   0.0162    0.430
  14   0.9524   0.0185    0.438
  15   0.9455   0.0209    0.449
  16   0.9382   0.0234    0.445
  17   0.9304   0.0260    0.461
  18   0.9222   0.0287    0.451
  19   0.9135   0.0314    0.442
  20   0.9045   0.0341    0.428
  21   0.8951   0.0369    0.422
  22   0.8853   0.0398    0.391
  23   0.8751   0.0427    0.382
  24   0.8645   0.0456    0.351
  25   0.8536   0.0485    0.321
  26   0.8423   0.0515    0.296
  27   0.8307   0.0545    0.261
  28   0.8187   0.0575    0.239
  29   0.8065   0.0605    0.199
  30   0.7939   0.0636    0.172
  31   0.7810   0.0667    0.137
  32   0.7679   0.0699    0.108
  33   0.7545   0.0730    0.078
  34   0.7409   0.0762    0.055
  35   0.7270   0.0795    0.032
  36   0.7129   0.0828    0.009
  37   0.6986   0.0861   -0.008
  38   0.6841   0.0895   -0.021
  39   0.6694   0.0930   -0.028
  40   0.6545   0.0965   -0.035
  41   0.6395   0.1000   -0.037
  42   0.6243   0.1036   -0.029
  43   0.6091   0.1072   -0.016
  44   0.5937   0.1108   -0.007
  45   0.5782   0.1145    0.014
  46   0.5627   0.1182    0.045
  47   0.5471   0.1218    0.072
  48   0.5314   0.1255    0.105
  49   0.5157   0.1292    0.151
  50   0.5000   0.1328    0.194
  51   0.4843   0.1363    0.249
  52   0.4686   0.1398    0.297
  53   0.4529   0.1432    0.362
  54   0.4373   0.1465    0.423
  55   0.4218   0.1496    0.498
  56   0.4063   0.1526    0.562
  57   0.3909   0.1554    0.641
  58   0.3757   0.1580    0.722
  59   0.3605   0.1604    0.802
  60   0.3455   0.1626    0.887
  61   0.3306   0.1645    0.974
  62   0.3159   0.1661    1.063
  63   0.3014   0.1674    1.152
  64   0.2871   0.1685    1.250
  65   0.2730   0.1692    1.339
  66   0.2591   0.1695    1.430
  67   0.2455   0.1696    1.525
  68   0.2321   0.1692    1.619
  69   0.2190   0.1685    1.703
  70   0.2061   0.1675    1.794
  71   0.1935   0.1660    1.883
  72   0.1813   0.1642    1.963
  73   0.1693   0.1620    2.041
  74   0.1577   0.1595    2.126
  75   0.1464   0.1565    2.188
  76   0.1355   0.1532    2.268
  77   0.1249   0.1496    2.334
  78   0.1147   0.1456    2.391
  79   0.1049   0.1413    2.466
  80   0.0955   0.1367    2.511
  81   0.0865   0.1317    2.578
  82   0.0778   0.1265    2.637
  83   0.0696   0.1209    2.692
  84   0.0618   0.1152    2.753
  85   0.0545   0.1091    2.804
  86   0.0476   0.1029    2.887
  87   0.0411   0.0964    2.930
  88   0.0351   0.0897    3.003
  89   0.0296   0.0829    3.074
  90   0.0245   0.0758    3.136
  91   0.0199   0.0687    3.209
  92   0.0157   0.0614    3.289
  93   0.0120   0.0539    3.332
  94   0.0089   0.0464    3.419
  95   0.0062   0.0388    3.463
  96   0.0039   0.0311    3.513
  97   0.0022   0.0234    3.563
  98   0.0010   0.0156    3.586
  99   0.0002   0.0078    3.606
 100   0.0000   0.0000    5.061
 101   0.0002  -0.0043    6.504
 102   0.0010  -0.0087    6.541
 103   0.0022  -0.0129    6.600
 104   0.0039  -0.0169    6.619
 105   0.0062  -0.0209    6.626
 106   0.0089  -0.0246    6.605
 107   0.0120  -0.0280    6.457
 108   0.0157  -0.0312    6.276
 109   0.0199  -0.0340    5.982
 110   0.0245  -0.0365    5.622
 111   0.0296  -0.0387    5.215
 112   0.0351  -0.0405    4.780
 113   0.0411  -0.0418    4.307
 114   0.0476  -0.0428    3.874
 115   0.0545  -0.0434    3.422
 116   0.0618  -0.0436    3.017
 117   0.0696  -0.0433    2.620
 118   0.0778  -0.0427    2.274
 119   0.0865  -0.0417    1.950
 120   0.0955  -0.0403    1.640
 121   0.1049  -0.0387    1.371
 122   0.1147  -0.0366    1.129
 123   0.1249  -0.0343    0.892
 124   0.1355  -0.0318    0.693
 125   0.1464  -0.0290    0.497
 126   0.1577  -0.0260    0.330
 127   0.1693  -0.0229    0.166
 128   0.1813  -0.0196    0.032
 129   0.1935  -0.0163   -0.110
 130   0.2061  -0.0129   -0.223
 131   0.2190  -0.0095   -0.328
 132   0.2321  -0.0060   -0.428
 133   0.2455  -0.0026   -0.509
 134   0.2591   0.0007   -0.582
 135   0.2730   0.0039   -0.645
 136   0.2871   0.0070   -0.699
 137   0.3014   0.0100   -0.735
 138   0.3159   0.0129   -0.773
 139   0.3306   0.0155   -0.795
 140   0.3455   0.0180   -0.801
 141   0.3605   0.0203   -0.815
 142   0.3757   0.0224   -0.803
 143   0.3909   0.0243   -0.795
 144   0.4063   0.0259   -0.774
 145   0.4218   0.0274   -0.750
 146   0.4373   0.0287   -0.723
 147   0.4529   0.0298   -0.686
 148   0.4686   0.0307   -0.651
 149   0.4843   0.0314   -0.607
 150   0.5000   0.0320   -0.569
 151   0.5157   0.0324   -0.524
 152   0.5314   0.0327   -0.481
 153   0.5471   0.0328   -0.443
 154   0.5627   0.0328   -0.394
 155   0.5782   0.0327   -0.361
 156   0.5937   0.0325   -0.321
 157   0.6091   0.0323   -0.289
 158   0.6243   0.0319   -0.256
 159   0.6395   0.0315   -0.232
 160   0.6545   0.0310   -0.207
 161   0.6694   0.0305   -0.187
 162   0.6841   0.0299   -0.177
 163   0.6986   0.0293   -0.160
 164   0.7129   0.0287   -0.160
 165   0.7270   0.0280   -0.150
 166   0.7409   0.0273   -0.159
 167   0.7545   0.0266   -0.159
 168   0.7679   0.0259   -0.168
 169   0.7810   0.0251   -0.179
 170   0.7939   0.0243   -0.194
 171   0.8065   0.0235   -0.208
 172   0.8187   0.0227   -0.227
 173   0.8307   0.0218   -0.248
 174   0.8423   0.0209   -0.263
 175   0.8536   0.0200   -0.283
 176   0.8645   0.0191   -0.307
 177   0.8751   0.0181   -0.329
 178   0.8853   0.0171   -0.330
 179   0.8951   0.0161   -0.363
 180   0.9045   0.0150   -0.374
 181   0.9135   0.0140   -0.376
 182   0.9222   0.0129   -0.387
 183   0.9304   0.0119   -0.399
 184   0.9382   0.0108   -0.391
 185   0.9455   0.0097   -0.399
 186   0.9524   0.0087   -0.395
 187   0.9589   0.0077   -0.376
 188   0.9649   0.0067   -0.378
 189   0.9704   0.0057   -0.346
 190   0.9755   0.0048   -0.329
 191   0.9801   0.0040   -0.322
 192   0.9843   0.0032   -0.284
 193   0.9880   0.0025   -0.251
 194   0.9911   0.0018   -0.222
 195   0.9938   0.0013   -0.199
 196   0.9961   0.0008   -0.134
 197   0.9978   0.0005   -0.134
 198   0.9990   0.0002   -0.092
 199   0.9998   0.0001   -0.058

 Maximum panel corner angle =  6.626   at  i,x,y  = 105   0.0062  -0.0209

 Enter corner angle criterion for refinement (deg):   3.313
 Enter type of spline parameter (1=uniform, 2=arclength):   1
 Enter refinement x limits:  -0.10000   1.10000
 Number of points added:           46
 Max thickness =     0.185545  at x =   0.146
 Max camber    =     0.090333  at x =   0.360

 Maximum panel corner angle =  3.209   at  i,x,y  =  91   0.0199   0.0687

.GDES   c>  
 Buffer airfoil is not identical to current airfoil

 XFOIL   c>  
 Blunt trailing edge.  Gap =  0.00027

 Paneling parameters used...
   Number of panel nodes       160
   Panel bunching parameter    1.000
   TE/LE panel density ratio   0.150
   Refined-area/LE panel density ratio    0.200
   Top    side refined area x/c limits  1.000 1.000
   Bottom side refined area x/c limits  1.000 1.000

 XFOIL   c>  
.OPERi   c>   Current iteration limit:          20

Enter new iteration limit   i>  
Enter new iteration limit   i>  
Enter new iteration limit   i>  
.OPERi   c>  
 M  =    0.0000
 Re =  0.3000E+06

.OPERv   c>  
 Sonic Cp =    -66.86      Sonic Q/Qinf =     9.138


.OPERv   c>  
 Polar  1 newly created for accumulation
 Airfoil archived with polar: 000136                                          

Enter  polar save filename  OR  <return> for no file   s>  
 New polar save file available

Enter  polar dump filename  OR  <return> for no file   s>  
 Polar dump file will NOT be written

 Polar accumulation enabled

.OPERva   c>   Calculating unit vorticity distributions ...
 Calculating wake trajectory ...
 Calculating source influence matrix ...

 Solving BL system ...

 Initializing BL ...
    side            1  ...
 MRCHUE: Inverse mode at  50     Hk =   4.086
 MRCHUE: Inverse mode at  51     Hk =   4.934
 MRCHUE: Inverse mode at  52     Hk =   5.782
 MRCHUE: Inverse mode at  53     Hk =   6.640
 MRCHUE: Inverse mode at  54     Hk =   7.514
 MRCHUE: Inverse mode at  55     Hk =   8.410
 MRCHUE: Inverse mode at  56     Hk =   9.331
 MRCHUE: Inverse mode at  57     Hk =   6.077
 MRCHUE: Inverse mode at  58     Hk =   3.238
 MRCHUE: Convergence failed at  86  side 1    Res =  0.9324E+01
    side            2  ...
 MRCHUE: Inverse mode at  28     Hk =   4.089
 MRCHUE: Inverse mode at  29     Hk =   4.661
 MRCHUE: Inverse mode at  30     Hk =   5.243
 MRCHUE: Inverse mode at  31     Hk =   5.841
 MRCHUE: Inverse mode at  32     Hk =   6.464
 MRCHUE: Inverse mode at  33     Hk =   7.121
 MRCHUE: Inverse mode at  34     Hk =   7.822
 MRCHUE: Inverse mode at  35     Hk =   8.574
 MRCHUE: Inverse mode at  36     Hk =   9.389
 MRCHUE: Inverse mode at  37     Hk =   8.282
 MRCHUE: Inverse mode at  38     Hk =   4.649
 MRCHUE: Inverse mode at  39     Hk =   2.658
 MRCHUE: Inverse mode at  40     Hk =   2.500
 MRCHUE: Inverse mode at  41     Hk =   2.500

 MRCHDU: Convergence failed at  86  side 1    Res =  0.1094E+02
 Side 1  free  transition at x/c =  0.3333   57
 Side 2  free  transition at x/c =  0.1734   37

   1   rms: 0.3318E+00   max: 0.2651E+01   T at   37  2   RLX: 0.360
       a =  2.000      CL =  1.2525
      Cm = -0.1789     CD =  0.01343   =>   CDf =  0.00883    CDp =  0.00460

 Side 1  free  transition at x/c =  0.3381   56
 Side 2  free  transition at x/c =  0.1577   37

   2   rms: 0.1805E+00   max: -.9757E+00   D at   77  2   RLX: 0.512
       a =  2.000      CL =  1.1882
      Cm = -0.1659     CD =  0.01707   =>   CDf =  0.00844    CDp =  0.00863

 Side 1  free  transition at x/c =  0.3431   56
 Side 2  free  transition at x/c =  0.1509   37

   3   rms: 0.1224E+00   max: -.5752E+00   D at   77  2   RLX: 0.869
       a =  2.000      CL =  1.1739
      Cm = -0.1624     CD =  0.01991   =>   CDf =  0.00856    CDp =  0.01135

 Side 1  free  transition at x/c =  0.3463   57
 Side 2  free  transition at x/c =  0.1502   36

   4   rms: 0.3156E-01   max: 0.2598E+00   D at   37  2
       a =  2.000      CL =  1.1848
      Cm = -0.1644     CD =  0.02078   =>   CDf =  0.00881    CDp =  0.01198

 Side 1  free  transition at x/c =  0.3464   57
 Side 2  free  transition at x/c =  0.1483   36

   5   rms: 0.8006E-02   max: 0.4755E-01   D at   37  2
       a =  2.000      CL =  1.1846
      Cm = -0.1644     CD =  0.02080   =>   CDf =  0.00874    CDp =  0.01206

 Side 1  free  transition at x/c =  0.3464   57
 Side 2  free  transition at x/c =  0.1479   36

   6   rms: 0.1762E-03   max: 0.1477E-02   D at   38  2
       a =  2.000      CL =  1.1845
      Cm = -0.1644     CD =  0.02079   =>   CDf =  0.00871    CDp =  0.01208

 Side 1  free  transition at x/c =  0.3464   57
 Side 2  free  transition at x/c =  0.1479   36

   7   rms: 0.1056E-05   max: 0.6637E-05   D at   51  2
       a =  2.000      CL =  1.1845
      Cm = -0.1644     CD =  0.02079   =>   CDf =  0.00871    CDp =  0.01208

 Point added to stored polar  1
 Point written to save file  000136M0.1.log                                  
 Dump file unspecified or not available
 Calculating wake trajectory ...
 Calculating source influence matrix ...

 Solving BL system ...

 Side 1  free  transition at x/c =  0.3464   57
 Side 2  free  transition at x/c =  0.1479   36

   1   rms: 0.1728E+00   max: -.1148E+01   T at   36  2   RLX: 0.435
       a =  3.000      CL =  1.2370
      Cm = -0.1647     CD =  0.02149   =>   CDf =  0.00854    CDp =  0.01294

 Side 1  free  transition at x/c =  0.3411   57
 Side 2  free  transition at x/c =  0.1577   36

   2   rms: 0.1093E+00   max: 0.9304E+00   D at   36  2
       a =  3.000      CL =  1.2958
      Cm = -0.1630     CD =  0.02118   =>   CDf =  0.00879    CDp =  0.01239

 Side 1  free  transition at x/c =  0.3346   57
 Side 2  free  transition at x/c =  0.1625   36

   3   rms: 0.1122E-01   max: -.9818E-01   D at   37  2
       a =  3.000      CL =  1.2979
      Cm = -0.1634     CD =  0.02107   =>   CDf =  0.00873    CDp =  0.01234

 Side 1  free  transition at x/c =  0.3350   57
 Side 2  free  transition at x/c =  0.1634   36

   4   rms: 0.1262E-02   max: 0.9234E-02   D at   37  2
       a =  3.000      CL =  1.2979
      Cm = -0.1634     CD =  0.02107   =>   CDf =  0.00875    CDp =  0.01233

 Side 1  free  transition at x/c =  0.3350   57
 Side 2  free  transition at x/c =  0.1633   36

   5   rms: 0.5788E-05   max: 0.5945E-04   D at   37  2
       a =  3.000      CL =  1.2979
      Cm = -0.1634     CD =  0.02107   =>   CDf =  0.00874    CDp =  0.01233

 Point added to stored polar  1
 Point written to save file  000136M0.1.log                                  
 Dump file unspecified or not available
 Calculating wake trajectory ...
 Calculating source influence matrix ...

 Solving BL system ...

 Side 1  free  transition at x/c =  0.3350   57
 Side 2  free  transition at x/c =  0.1633   36

   1   rms: 0.1551E+00   max: -.1455E+01   T at   36  2   RLX: 0.344
       a =  4.000      CL =  1.3365
      Cm = -0.1629     CD =  0.02136   =>   CDf =  0.00856    CDp =  0.01281

 Side 1  free  transition at x/c =  0.3316   58
 Side 2  free  transition at x/c =  0.1720   36

   2   rms: 0.1264E+00   max: 0.1300E+01   D at   36  2
       a =  4.000      CL =  1.4106
      Cm = -0.1625     CD =  0.02184   =>   CDf =  0.00860    CDp =  0.01324

 Side 1  free  transition at x/c =  0.3258   58
 Side 2  free  transition at x/c =  0.1811   36

   3   rms: 0.1363E-01   max: -.9889E-01   D at   58  1
       a =  4.000      CL =  1.4089
      Cm = -0.1624     CD =  0.02175   =>   CDf =  0.00882    CDp =  0.01293

 Side 1  free  transition at x/c =  0.3246   58
 Side 2  free  transition at x/c =  0.1815   36

   4   rms: 0.6878E-03   max: 0.4455E-02   D at   36  2
       a =  4.000      CL =  1.4093
      Cm = -0.1624     CD =  0.02177   =>   CDf =  0.00876    CDp =  0.01301

 Side 1  free  transition at x/c =  0.3246   58
 Side 2  free  transition at x/c =  0.1815   36

   5   rms: 0.6027E-05   max: 0.2608E-04   D at   84  1
       a =  4.000      CL =  1.4093
      Cm = -0.1624     CD =  0.02177   =>   CDf =  0.00876    CDp =  0.01301

 Point added to stored polar  1
 Point written to save file  000136M0.1.log                                  
 Dump file unspecified or not available
 Calculating wake trajectory ...
 Calculating source influence matrix ...

 Solving BL system ...

 Side 1  free  transition at x/c =  0.3246   58
 Side 2  free  transition at x/c =  0.1815   36

   1   rms: 0.1440E+00   max: -.1055E+01   T at   36  2   RLX: 0.474
       a =  5.000      CL =  1.4595
      Cm = -0.1616     CD =  0.02207   =>   CDf =  0.00877    CDp =  0.01330

 Side 1  free  transition at x/c =  0.3190   58
 Side 2  free  transition at x/c =  0.1903   36

   2   rms: 0.9761E-01   max: -.7153E+00   T at   36  2   RLX: 0.699
       a =  5.000      CL =  1.4995
      Cm = -0.1609     CD =  0.02268   =>   CDf =  0.00844    CDp =  0.01424

 Side 1  free  transition at x/c =  0.3156   59
 Side 2  free  transition at x/c =  0.2010   36

   3   rms: 0.4472E-01   max: 0.5761E+00   D at   36  2
       a =  5.000      CL =  1.5172
      Cm = -0.1609     CD =  0.02252   =>   CDf =  0.00874    CDp =  0.01378

 Side 1  free  transition at x/c =  0.3143   59
 Side 2  free  transition at x/c =  0.2032   36

   4   rms: 0.2919E-02   max: 0.2741E-01   D at   37  2
       a =  5.000      CL =  1.5172
      Cm = -0.1609     CD =  0.02254   =>   CDf =  0.00875    CDp =  0.01380

 Side 1  free  transition at x/c =  0.3143   59
 Side 2  free  transition at x/c =  0.2030   36

   5   rms: 0.2043E-04   max: 0.2435E-03   D at   37  2
       a =  5.000      CL =  1.5172
      Cm = -0.1609     CD =  0.02254   =>   CDf =  0.00875    CDp =  0.01379

 Point added to stored polar  1
 Point written to save file  000136M0.1.log                                  
 Dump file unspecified or not available
 Calculating wake trajectory ...
 Calculating source influence matrix ...

 Solving BL system ...

 Side 1  free  transition at x/c =  0.3143   59
 Side 2  free  transition at x/c =  0.2030   36

   1   rms: 0.1438E+00   max: -.9988E+00   T at   36  2   RLX: 0.501
       a =  6.000      CL =  1.5714
      Cm = -0.1603     CD =  0.02325   =>   CDf =  0.00852    CDp =  0.01473

 Side 1  free  transition at x/c =  0.3101   59
 Side 2  free  transition at x/c =  0.2150   36

   2   rms: 0.7527E-01   max: -.6385E+00   T at   36  2   RLX: 0.783
       a =  6.000      CL =  1.6083
      Cm = -0.1590     CD =  0.02359   =>   CDf =  0.00880    CDp =  0.01480

 Side 1  free  transition at x/c =  0.3055   59
 Side 2  free  transition at x/c =  0.2249   36

   3   rms: 0.4739E-01   max: -.3327E+00   D at   36  2
       a =  6.000      CL =  1.6198
      Cm = -0.1588     CD =  0.02382   =>   CDf =  0.00863    CDp =  0.01519

 Side 1  free  transition at x/c =  0.3042   59
 Side 2  free  transition at x/c =  0.2294   36

   4   rms: 0.1403E-02   max: 0.2383E-01   D at   37  2
       a =  6.000      CL =  1.6200
      Cm = -0.1589     CD =  0.02381   =>   CDf =  0.00864    CDp =  0.01516

 Side 1  free  transition at x/c =  0.3042   59
 Side 2  free  transition at x/c =  0.2292   36

   5   rms: 0.5147E-04   max: 0.4948E-03   D at   37  2
       a =  6.000      CL =  1.6200
      Cm = -0.1589     CD =  0.02381   =>   CDf =  0.00864    CDp =  0.01517

 Point added to stored polar  1
 Point written to save file  000136M0.1.log                                  
 Dump file unspecified or not available
 Calculating wake trajectory ...
 Calculating source influence matrix ...

 Solving BL system ...

 Side 1  free  transition at x/c =  0.3042   59
 Side 2  free  transition at x/c =  0.2292   36

   1   rms: 0.1444E+00   max: -.1206E+01   T at   36  2   RLX: 0.415
       a =  7.000      CL =  1.6613
      Cm = -0.1578     CD =  0.02437   =>   CDf =  0.00840    CDp =  0.01597

 MRCHDU: Convergence failed at  37  side 2    Res =  0.7162E+01
 MRCHDU: Convergence failed at  38  side 2    Res =  0.4239E+01
 MRCHDU: Convergence failed at  39  side 2    Res =  0.4502E+01
 MRCHDU: Convergence failed at  40  side 2    Res =  0.8344E+01
 MRCHDU: Convergence failed at  41  side 2    Res =  0.1512E+02
 MRCHDU: Convergence failed at  42  side 2    Res =  0.2319E+02
 MRCHDU: Convergence failed at  43  side 2    Res =  0.2890E+02
 MRCHDU: Convergence failed at  44  side 2    Res =  0.2863E+02
 MRCHDU: Convergence failed at  45  side 2    Res =  0.2392E+02
 MRCHDU: Convergence failed at  46  side 2    Res =  0.1803E+02
 MRCHDU: Convergence failed at  47  side 2    Res =  0.1301E+02
 MRCHDU: Convergence failed at  48  side 2    Res =  0.9209E+01
 MRCHDU: Convergence failed at  49  side 2    Res =  0.6550E+01
 MRCHDU: Convergence failed at  50  side 2    Res =  0.4704E+01
 MRCHDU: Convergence failed at  51  side 2    Res =  0.3623E+01
 MRCHDU: Convergence failed at  52  side 2    Res =  0.2750E+01
 MRCHDU: Convergence failed at  53  side 2    Res =  0.5082E+01
 MRCHDU: Convergence failed at  54  side 2    Res =  0.5486E+01
 MRCHDU: Convergence failed at  55  side 2    Res =  0.5454E+01
 MRCHDU: Convergence failed at  56  side 2    Res =  0.9334E+01
 Side 1  free  transition at x/c =  0.3002   60
 Side 2  free  transition at x/c =  0.2457   36

   2   rms: 0.1759E+00   max: -.9731E+00   D at   57  2   RLX: 0.514
       a =  7.000      CL =  1.6696
      Cm = -0.1535     CD =  0.02409   =>   CDf =  0.00750    CDp =  0.01659

 Side 1  free  transition at x/c =  0.2975   60
 Side 2  free  transition at x/c =  0.2456   36

   3   rms: 0.1669E+00   max: -.1099E+01   T at   36  2   RLX: 0.455
       a =  7.000      CL =  1.7038
      Cm = -0.1563     CD =  0.02594   =>   CDf =  0.00867    CDp =  0.01727

 Side 1  free  transition at x/c =  0.2964   60
 Side 2  free  transition at x/c =  0.2643   37

   4   rms: 0.2675E+00   max: -.2152E+01   D at   44  2   RLX: 0.232
       a =  7.000      CL =  1.7085
      Cm = -0.1568     CD =  0.02528   =>   CDf =  0.00868    CDp =  0.01660

 Side 1  free  transition at x/c =  0.2960   60
 Side 2  free  transition at x/c =  0.2702   38

   5   rms: 0.1649E+00   max: -.1846E+01   D at   44  2   RLX: 0.271
       a =  7.000      CL =  1.7128
      Cm = -0.1570     CD =  0.02511   =>   CDf =  0.00869    CDp =  0.01642

 Side 1  free  transition at x/c =  0.2956   59
 Side 2  free  transition at x/c =  0.2713   38

   6   rms: 0.1290E+00   max: -.1492E+01   D at   45  2   RLX: 0.335
       a =  7.000      CL =  1.7160
      Cm = -0.1571     CD =  0.02512   =>   CDf =  0.00871    CDp =  0.01641

 Side 1  free  transition at x/c =  0.2954   59
 Side 2  free  transition at x/c =  0.2707   38

   7   rms: 0.9283E-01   max: -.1109E+01   D at   46  2   RLX: 0.451
       a =  7.000      CL =  1.7192
      Cm = -0.1572     CD =  0.02515   =>   CDf =  0.00866    CDp =  0.01649

 Side 1  free  transition at x/c =  0.2952   59
 Side 2  free  transition at x/c =  0.2685   38

   8   rms: 0.5989E-01   max: -.7524E+00   D at   46  2   RLX: 0.665
       a =  7.000      CL =  1.7212
      Cm = -0.1571     CD =  0.02526   =>   CDf =  0.00863    CDp =  0.01662

 Side 1  free  transition at x/c =  0.2950   59
 Side 2  free  transition at x/c =  0.2657   37

   9   rms: 0.2526E-01   max: -.3474E+00   D at   46  2
       a =  7.000      CL =  1.7224
      Cm = -0.1571     CD =  0.02524   =>   CDf =  0.00864    CDp =  0.01660

 Side 1  free  transition at x/c =  0.2949   59
 Side 2  free  transition at x/c =  0.2639   37

  10   rms: 0.1524E-02   max: -.2544E-01   D at   46  2
       a =  7.000      CL =  1.7224
      Cm = -0.1571     CD =  0.02524   =>   CDf =  0.00863    CDp =  0.01660

 Side 1  free  transition at x/c =  0.2949   59
 Side 2  free  transition at x/c =  0.2638   37

  11   rms: 0.8877E-05   max: -.1561E-03   D at   46  2
       a =  7.000      CL =  1.7224
      Cm = -0.1571     CD =  0.02524   =>   CDf =  0.00863    CDp =  0.01660

 Point added to stored polar  1
 Point written to save file  000136M0.1.log                                  
 Dump file unspecified or not available
 Calculating wake trajectory ...
 Calculating source influence matrix ...

 Solving BL system ...

 Side 1  free  transition at x/c =  0.2949   59
 Side 2  free  transition at x/c =  0.2638   37

   1   rms: 0.1379E+00   max: -.1042E+01   T at   37  2   RLX: 0.480
       a =  8.000      CL =  1.7631
      Cm = -0.1550     CD =  0.02594   =>   CDf =  0.00837    CDp =  0.01757

 Side 1  free  transition at x/c =  0.2907   60
 Side 2  free  transition at x/c =  0.2857   37

   2   rms: 0.7485E-01   max: -.6131E+00   T at   37  2   RLX: 0.816
       a =  8.000      CL =  1.8012
      Cm = -0.1535     CD =  0.02677   =>   CDf =  0.00845    CDp =  0.01833

 MRCHDU: Convergence failed at  39  side 2    Res =  0.2322E+01
 MRCHDU: Convergence failed at  40  side 2    Res =  0.6458E+01
 MRCHDU: Convergence failed at  41  side 2    Res =  0.1300E+03
 MRCHDU: Convergence failed at  42  side 2    Res =  0.2748E+02
 MRCHDU: Convergence failed at  43  side 2    Res =  0.2137E+02
 MRCHDU: Convergence failed at  44  side 2    Res =  0.3160E+02
 MRCHDU: Convergence failed at  45  side 2    Res =  0.2341E+03
 MRCHDU: Convergence failed at  46  side 2    Res =  0.1809E+02
 MRCHDU: Convergence failed at  47  side 2    Res =  0.7625E+01
 MRCHDU: Convergence failed at  48  side 2    Res =  0.4234E+01
 Side 1  free  transition at x/c =  0.2866   60
 Side 2  free  transition at x/c =  0.3070   39

   3   rms: 0.1457E+00   max: -.1103E+01   D at   46  2   RLX: 0.453
       a =  8.000      CL =  1.7993
      Cm = -0.1527     CD =  0.02654   =>   CDf =  0.00744    CDp =  0.01910

 Side 1  free  transition at x/c =  0.2863   61
 Side 2  free  transition at x/c =  0.3134   38

   4   rms: 0.2991E-01   max: -.3658E+00   D at   38  2
       a =  8.000      CL =  1.8117
      Cm = -0.1536     CD =  0.02675   =>   CDf =  0.00834    CDp =  0.01842

 Side 1  free  transition at x/c =  0.2860   61
 Side 2  free  transition at x/c =  0.3110   38

   5   rms: 0.2046E-02   max: 0.3242E-01   D at   39  2
       a =  8.000      CL =  1.8118
      Cm = -0.1537     CD =  0.02676   =>   CDf =  0.00828    CDp =  0.01847

 Side 1  free  transition at x/c =  0.2860   61
 Side 2  free  transition at x/c =  0.3111   38

   6   rms: 0.2880E-04   max: -.5700E-03   D at   39  2
       a =  8.000      CL =  1.8118
      Cm = -0.1537     CD =  0.02676   =>   CDf =  0.00828    CDp =  0.01848

 Point added to stored polar  1
 Point written to save file  000136M0.1.log                                  
 Dump file unspecified or not available
 Calculating wake trajectory ...
 Calculating source influence matrix ...

 Solving BL system ...

 Side 1  free  transition at x/c =  0.2860   61
 Side 2  free  transition at x/c =  0.3111   38

   1   rms: 0.1700E+00   max: -.1399E+01   T at   38  2   RLX: 0.357
       a =  9.000      CL =  1.8447
      Cm = -0.1527     CD =  0.02725   =>   CDf =  0.00830    CDp =  0.01894

 Side 1  free  transition at x/c =  0.2829   61
 Side 2  free  transition at x/c =  0.3301   39

   2   rms: 0.2032E+00   max: -.1894E+01   T at   39  2   RLX: 0.264
       a =  9.000      CL =  1.8624
      Cm = -0.1527     CD =  0.02787   =>   CDf =  0.00836    CDp =  0.01950

 Side 1  free  transition at x/c =  0.2815   61
 Side 2  free  transition at x/c =  0.3445   39

   3   rms: 0.1031E+00   max: -.1165E+01   T at   39  2   RLX: 0.429
       a =  9.000      CL =  1.8836
      Cm = -0.1525     CD =  0.02852   =>   CDf =  0.00838    CDp =  0.02014

 Side 1  free  transition at x/c =  0.2799   60
 Side 2  free  transition at x/c =  0.3691   41

   4   rms: 0.1013E+00   max: -.9861E+00   C at   41  2   RLX: 0.507
       a =  9.000      CL =  1.8921
      Cm = -0.1517     CD =  0.02846   =>   CDf =  0.00800    CDp =  0.02046

 Side 1  free  transition at x/c =  0.2788   61
 Side 2  free  transition at x/c =  0.3956   41

   5   rms: 0.8871E-01   max: -.1558E+01   C at   41  2   RLX: 0.321
       a =  9.000      CL =  1.8948
      Cm = -0.1515     CD =  0.02863   =>   CDf =  0.00812    CDp =  0.02051

 Side 1  free  transition at x/c =  0.2784   61
 Side 2  free  transition at x/c =  0.4055   41

   6   rms: 0.3753E-01   max: -.4053E+00   T at   41  2
       a =  9.000      CL =  1.8982
      Cm = -0.1504     CD =  0.02883   =>   CDf =  0.00810    CDp =  0.02073

 Side 1  free  transition at x/c =  0.2776   61
 Side 2 forced transition at x/c =  1.0001   68

   7   rms: 0.3151E-01   max: 0.4469E+00   D at   41  2
       a =  9.000      CL =  1.8927
      Cm = -0.1493     CD =  0.02816   =>   CDf =  0.00736    CDp =  0.02080

 Side 1  free  transition at x/c =  0.2777   61
 Side 2 forced transition at x/c =  1.0001   68

   8   rms: 0.7994E-02   max: 0.5483E-01   D at   40  2
       a =  9.000      CL =  1.8926
      Cm = -0.1493     CD =  0.02816   =>   CDf =  0.00736    CDp =  0.02080

 Side 1  free  transition at x/c =  0.2777   61
 Side 2 forced transition at x/c =  1.0001   68

   9   rms: 0.6067E-03   max: 0.4407E-02   D at   40  2
       a =  9.000      CL =  1.8926
      Cm = -0.1493     CD =  0.02816   =>   CDf =  0.00736    CDp =  0.02080

 Side 1  free  transition at x/c =  0.2777   61
 Side 2 forced transition at x/c =  1.0001   68

  10   rms: 0.4964E-05   max: 0.3505E-04   D at   39  2
       a =  9.000      CL =  1.8926
      Cm = -0.1493     CD =  0.02816   =>   CDf =  0.00735    CDp =  0.02080

 Point added to stored polar  1
 Point written to save file  000136M0.1.log                                  
 Dump file unspecified or not available
 Calculating wake trajectory ...
 Calculating source influence matrix ...

 Solving BL system ...

 Side 1  free  transition at x/c =  0.2777   61
 Side 2 forced transition at x/c =  1.0001   68

   1   rms: 0.2046E+00   max: -.7707E+00   n at   67  2   RLX: 0.649
       a = 10.000      CL =  1.9330
      Cm = -0.1448     CD =  0.02994   =>   CDf =  0.00738    CDp =  0.02255

 Side 1  free  transition at x/c =  0.2719   61
 Side 2 forced transition at x/c =  1.0001   68

   2   rms: 0.4062E-01   max: 0.1043E+00   D at   35  2
       a = 10.000      CL =  1.9507
      Cm = -0.1418     CD =  0.03081   =>   CDf =  0.00703    CDp =  0.02378

 Side 1  free  transition at x/c =  0.2696   62
 Side 2 forced transition at x/c =  1.0001   67

   3   rms: 0.4556E-02   max: -.2910E-01   D at   62  1
       a = 10.000      CL =  1.9513
      Cm = -0.1420     CD =  0.03079   =>   CDf =  0.00732    CDp =  0.02347

 Side 1  free  transition at x/c =  0.2697   62
 Side 2 forced transition at x/c =  1.0001   67

   4   rms: 0.2798E-03   max: -.1625E-02   D at    4  1
       a = 10.000      CL =  1.9515
      Cm = -0.1420     CD =  0.03079   =>   CDf =  0.00732    CDp =  0.02348

 Side 1  free  transition at x/c =  0.2697   62
 Side 2 forced transition at x/c =  1.0001   67

   5   rms: 0.1823E-05   max: 0.8961E-05   D at   80  2
       a = 10.000      CL =  1.9515
      Cm = -0.1420     CD =  0.03079   =>   CDf =  0.00732    CDp =  0.02348

 Point added to stored polar  1
 Point written to save file  000136M0.1.log                                  
 Dump file unspecified or not available
 Calculating wake trajectory ...
 Calculating source influence matrix ...

 Solving BL system ...

 Side 1  free  transition at x/c =  0.2697   62
 Side 2 forced transition at x/c =  1.0001   67

   1   rms: 0.1224E+00   max: -.2257E+00   n at   46  2
       a = 11.000      CL =  2.0168
      Cm = -0.1362     CD =  0.03344   =>   CDf =  0.00701    CDp =  0.02643

 Side 1  free  transition at x/c =  0.2640   62
 Side 2 forced transition at x/c =  1.0001   66

   2   rms: 0.2326E-01   max: 0.9022E-01   D at   92  1
       a = 11.000      CL =  1.9927
      Cm = -0.1344     CD =  0.03501   =>   CDf =  0.00728    CDp =  0.02773

 Side 1  free  transition at x/c =  0.2623   62
 Side 2 forced transition at x/c =  1.0001   66

   3   rms: 0.3956E-02   max: -.2197E-01   D at   93  1
       a = 11.000      CL =  1.9965
      Cm = -0.1348     CD =  0.03486   =>   CDf =  0.00717    CDp =  0.02769

 Side 1  free  transition at x/c =  0.2622   62
 Side 2 forced transition at x/c =  1.0001   66

   4   rms: 0.3201E-04   max: -.2219E-03   D at   73  2
       a = 11.000      CL =  1.9965
      Cm = -0.1348     CD =  0.03487   =>   CDf =  0.00718    CDp =  0.02769

 Point added to stored polar  1
 Point written to save file  000136M0.1.log                                  
 Dump file unspecified or not available
 Calculating wake trajectory ...
 Calculating source influence matrix ...

 Solving BL system ...

 Side 1  free  transition at x/c =  0.2622   62
 Side 2 forced transition at x/c =  1.0001   66

   1   rms: 0.1122E+00   max: 0.3475E+00   D at   87  1   RLX: 0.853
       a = 12.000      CL =  2.0165
      Cm = -0.1280     CD =  0.03954   =>   CDf =  0.00721    CDp =  0.03233

 Side 1  free  transition at x/c =  0.2549   62
 Side 2 forced transition at x/c =  1.0001   66

   2   rms: 0.2454E-01   max: -.1686E+00   D at   62  1
       a = 12.000      CL =  2.0323
      Cm = -0.1289     CD =  0.03983   =>   CDf =  0.00669    CDp =  0.03313

 Side 1  free  transition at x/c =  0.2547   63
 Side 2 forced transition at x/c =  1.0001   65

   3   rms: 0.1006E-02   max: -.1124E-01   D at    3  1
       a = 12.000      CL =  2.0329
      Cm = -0.1290     CD =  0.03985   =>   CDf =  0.00704    CDp =  0.03281

 Side 1  free  transition at x/c =  0.2546   63
 Side 2 forced transition at x/c =  1.0001   65

   4   rms: 0.2672E-03   max: -.3128E-02   D at    4  1
       a = 12.000      CL =  2.0328
      Cm = -0.1290     CD =  0.03985   =>   CDf =  0.00704    CDp =  0.03281

 Side 1  free  transition at x/c =  0.2546   63
 Side 2 forced transition at x/c =  1.0001   65

   5   rms: 0.2214E-05   max: -.1451E-04   D at   78  2
       a = 12.000      CL =  2.0328
      Cm = -0.1290     CD =  0.03985   =>   CDf =  0.00704    CDp =  0.03281

 Point added to stored polar  1
 Point written to save file  000136M0.1.log                                  
 Dump file unspecified or not available
 Calculating wake trajectory ...
 Calculating source influence matrix ...

 Solving BL system ...

 Side 1  free  transition at x/c =  0.2546   63
 Side 2 forced transition at x/c =  1.0001   65

   1   rms: 0.1107E+00   max: 0.3868E+00   T at   63  1   RLX: 0.783
       a = 13.000      CL =  2.0763
      Cm = -0.1262     CD =  0.04345   =>   CDf =  0.00707    CDp =  0.03638

 Side 1  free  transition at x/c =  0.2505   62
 Side 2 forced transition at x/c =  1.0001   65

   2   rms: 0.6501E-01   max: 0.3176E+00   D at   87  1
       a = 13.000      CL =  2.0271
      Cm = -0.1239     CD =  0.04967   =>   CDf =  0.00697    CDp =  0.04271

 Side 1  free  transition at x/c =  0.2473   62
 Side 2 forced transition at x/c =  1.0001   65

   3   rms: 0.9186E-02   max: -.5909E-01   D at   88  1
       a = 13.000      CL =  2.0348
      Cm = -0.1248     CD =  0.04914   =>   CDf =  0.00666    CDp =  0.04247

 Side 1  free  transition at x/c =  0.2472   62
 Side 2 forced transition at x/c =  1.0001   65

   4   rms: 0.4978E-03   max: -.3169E-02   D at   85  1
       a = 13.000      CL =  2.0352
      Cm = -0.1248     CD =  0.04913   =>   CDf =  0.00666    CDp =  0.04246

 Side 1  free  transition at x/c =  0.2472   62
 Side 2 forced transition at x/c =  1.0001   65

   5   rms: 0.1120E-04   max: -.8520E-04   D at   77  2
       a = 13.000      CL =  2.0352
      Cm = -0.1248     CD =  0.04913   =>   CDf =  0.00667    CDp =  0.04246

 Point added to stored polar  1
 Point written to save file  000136M0.1.log                                  
 Dump file unspecified or not available
 Calculating wake trajectory ...
 Calculating source influence matrix ...

 Solving BL system ...

 Side 1  free  transition at x/c =  0.2472   62
 Side 2 forced transition at x/c =  1.0001Got result {'DD': 0.02049, 'Dmin': 0.02079, 'LL': -1.1786}
Completed successfully in 1.70 seconds. [{'DD': 0.02049, 'Dmin': 0.02079, 'LL': -1.1786}]
   65

   1   rms: 0.1231E+00   max: 0.5034E+00   D at   82  1   RLX: 0.606
       a = 14.000      CL =  2.0264
      Cm = -0.1239     CD =  0.05688   =>   CDf =  0.00633    CDp =  0.05055

 Side 1  free  transition at x/c =  0.2420   63
 Side 2 forced transition at x/c =  1.0001   64

   2   rms: 0.4493E-01   max: 0.8740E-01   D at   76  2
       a = 14.000      CL =  2.0549
      Cm = -0.1234     CD =  0.05780   =>   CDf =  0.00652    CDp =  0.05128

 Side 1  free  transition at x/c =  0.2400   63
 Side 2 forced transition at x/c =  1.0001   64

   3   rms: 0.6925E-02   max: -.3505E-01   D at   83  1
       a = 14.000      CL =  2.0600
      Cm = -0.1232     CD =  0.05713   =>   CDf =  0.00655    CDp =  0.05058

 Side 1  free  transition at x/c =  0.2398   63
 Side 2 forced transition at x/c =  1.0001   64

   4   rms: 0.6440E-03   max: -.2937E-02   D at   77  2
       a = 14.000      CL =  2.0605
      Cm = -0.1232     CD =  0.05716   =>   CDf =  0.00659    CDp =  0.05057

 Side 1  free  transition at x/c =  0.2398   63
 Side 2 forced transition at x/c =  1.0001   64

   5   rms: 0.2540E-04   max: -.1676E-03   D at   76  2
       a = 14.000      CL =  2.0606
      Cm = -0.1232     CD =  0.05716   =>   CDf =  0.00659    CDp =  0.05057

 Point added to stored polar  1
 Point written to save file  000136M0.1.log                                  
 Dump file unspecified or not available
 Calculating wake trajectory ...
 Calculating source influence matrix ...

 Solving BL system ...

 Side 1  free  transition at x/c =  0.2398   63
 Side 2 forced transition at x/c =  1.0001   64

   1   rms: 0.1264E+00   max: -.1035E+00   n at   39  2   RLX: 0.617
       a = 15.000      CL =  2.1192
      Cm = -0.1211     CD =  0.05762   =>   CDf =  0.00625    CDp =  0.05138

 Side 1  free  transition at x/c =  0.2362   63
 Side 2 forced transition at x/c =  1.0001   63

   2   rms: 0.2127E+00   max: 0.1022E+01   D at   84  1
       a = 15.000      CL =  1.9508
      Cm = -0.1270     CD =  0.08386   =>   CDf =  0.00694    CDp =  0.07693

 Side 1  free  transition at x/c =  0.2309   62
 Side 2 forced transition at x/c =  1.0001   64

   3   rms: 0.3130E-01   max: 0.3404E+00   D at   79  1
       a = 15.000      CL =  1.9654
      Cm = -0.1265     CD =  0.08080   =>   CDf =  0.00592    CDp =  0.07488

 Side 1  free  transition at x/c =  0.2304   62
 Side 2 forced transition at x/c =  1.0001   64

   4   rms: 0.7471E-02   max: -.4144E-01   D at   80  1
       a = 15.000      CL =  1.9740
      Cm = -0.1265     CD =  0.07973   =>   CDf =  0.00551    CDp =  0.07422

 Side 1  free  transition at x/c =  0.2305   63
 Side 2 forced transition at x/c =  1.0001   63

   5   rms: 0.8217E-03   max: -.5961E-02   D at    3  2
       a = 15.000      CL =  1.9746
      Cm = -0.1265     CD =  0.07976   =>   CDf =  0.00589    CDp =  0.07388

 Side 1  free  transition at x/c =  0.2305   63
 Side 2 forced transition at x/c =  1.0001   63

   6   rms: 0.4593E-03   max: -.5849E-02   D at    4  1
       a = 15.000      CL =  1.9746
      Cm = -0.1265     CD =  0.07977   =>   CDf =  0.00589    CDp =  0.07388

 Side 1  free  transition at x/c =  0.2305   63
 Side 2 forced transition at x/c =  1.0001   63

   7   rms: 0.3779E-05   max: -.6335E-04   D at    2  1
       a = 15.000      CL =  1.9746
      Cm = -0.1265     CD =  0.07977   =>   CDf =  0.00589    CDp =  0.07388

 Point added to stored polar  1
 Point written to save file  000136M0.1.log                                  
 Dump file unspecified or not available

.OPERva   c>  
 XFOIL   c>  
