Job launching after 0.35 seconds in submission.
Running python job.
Changed into dir /home/simonx/Documents/Udacity/Projects/capstone/PESM_NSGA2_CST_XFoil
Importing evaluationFunctionXFoil.py
Running evaluationFunctionXFoil.main()
0
1
2
0.04
resp: 
 ===================================================
  XFOIL Version 6.97
  Copyright (C) 2000   Mark Drela, Harold Youngren

  This software comes with ABSOLUTELY NO WARRANTY,
    subject to the GNU General Public License.

  Caveat computor
 ===================================================

 File  xfoil.def  not found

   QUIT    Exit program

  .OPER    Direct operating point(s)
  .MDES    Complex mapping design routine
  .QDES    Surface speed design routine
  .GDES    Geometry design routine

   SAVE f  Write airfoil to labeled coordinate file
   PSAV f  Write airfoil to plain coordinate file
   ISAV f  Write airfoil to ISES coordinate file
   MSAV f  Write airfoil to MSES coordinate file
   REVE    Reverse written-airfoil node ordering
   DELI i  Change written-airfoil file delimiters

   LOAD f  Read buffer airfoil from coordinate file
   NACA i  Set NACA 4,5-digit airfoil and buffer airfoil
   INTE    Set buffer airfoil by interpolating two airfoils
   NORM    Buffer airfoil normalization toggle
   HALF    Halve the number of points in buffer airfoil
   XYCM rr Change CM reference location, currently  0.25000 0.00000

   BEND    Display structural properties of current airfoil

   PCOP    Set current-airfoil panel nodes directly from buffer airfoil points
   PANE    Set current-airfoil panel nodes ( 160 ) based on curvature
  .PPAR    Show/change paneling

  .PLOP    Plotting options

   WDEF f  Write  current-settings file
   RDEF f  Reread current-settings file
   NAME s  Specify new airfoil name
   NINC    Increment name version number

   Z       Zoom    | (available in all menus)
   U       Unzoom  | 

 XFOIL   c>   ...............................................

  G raphics-enable flag:        T
  S ize of plot object          10.00"
  A spect ratio of plot object   0.5500
  P age dimensions              11.00 x  8.50"
  M argins from page edges       0.00",  0.00"
  F ont size (relative)          0.0150
  W indow/screen size fraction   0.8000
  B lowup input method:        Cursor    
  O rientation of plot:        Landscape 
  C olor PostScript output?     F

      Option, Value   (or <Return>)    c>   ...............................................

  G raphics-enable flag:        F
  S ize of plot object          10.00"
  A spect ratio of plot object   0.5500
  P age dimensions              11.00 x  8.50"
  M argins from page edges       0.00",  0.00"
  F ont size (relative)          0.0150
  W indow/screen size fraction   0.8000
  B lowup input method:        Cursor    
  O rientation of plot:        Landscape 
  C olor PostScript output?     F

      Option, Value   (or <Return>)    c>  
 XFOIL   c>  
 Labeled airfoil file.  Name:  000233                                          

 Number of input coordinate points: 200
 Clockwise ordering
 Max thickness =     0.117079  at x =   0.181
 Max camber    =     0.096217  at x =   0.391

  LE  x,y  =  -0.00001   0.00073  |   Chord =   0.99989
  TE  x,y  =   0.99988   0.00006  |

 Current airfoil nodes set from buffer airfoil nodes ( 200 )

 XFOIL   c>  
 You are working with the buffer airfoil

.GDES   c>  
  i       x        y      angle
   2   0.9990   0.0005    0.014
   3   0.9978   0.0011    0.141
   4   0.9961   0.0019    0.154
   5   0.9938   0.0029    0.221
   6   0.9911   0.0042    0.237
   7   0.9880   0.0057    0.281
   8   0.9843   0.0073    0.326
   9   0.9801   0.0092    0.341
  10   0.9755   0.0112    0.381
  11   0.9704   0.0134    0.396
  12   0.9649   0.0158    0.433
  13   0.9589   0.0183    0.444
  14   0.9524   0.0210    0.469
  15   0.9455   0.0237    0.479
  16   0.9382   0.0266    0.488
  17   0.9304   0.0295    0.490
  18   0.9222   0.0325    0.505
  19   0.9135   0.0356    0.494
  20   0.9045   0.0388    0.495
  21   0.8951   0.0420    0.487
  22   0.8853   0.0453    0.475
  23   0.8751   0.0485    0.464
  24   0.8645   0.0518    0.451
  25   0.8536   0.0552    0.428
  26   0.8423   0.0585    0.419
  27   0.8307   0.0618    0.390
  28   0.8187   0.0652    0.374
  29   0.8065   0.0685    0.356
  30   0.7939   0.0719    0.331
  31   0.7810   0.0752    0.313
  32   0.7679   0.0786    0.290
  33   0.7545   0.0819    0.284
  34   0.7409   0.0852    0.258
  35   0.7270   0.0886    0.251
  36   0.7129   0.0919    0.245
  37   0.6986   0.0952    0.233
  38   0.6841   0.0984    0.230
  39   0.6694   0.1017    0.236
  40   0.6545   0.1049    0.236
  41   0.6395   0.1081    0.248
  42   0.6243   0.1113    0.261
  43   0.6091   0.1144    0.279
  44   0.5937   0.1175    0.298
  45   0.5782   0.1205    0.330
  46   0.5627   0.1234    0.358
  47   0.5471   0.1262    0.388
  48   0.5314   0.1289    0.434
  49   0.5157   0.1315    0.467
  50   0.5000   0.1340    0.520
  51   0.4843   0.1363    0.561
  52   0.4686   0.1385    0.621
  53   0.4529   0.1405    0.666
  54   0.4373   0.1423    0.724
  55   0.4218   0.1439    0.782
  56   0.4063   0.1453    0.835
  57   0.3909   0.1464    0.896
  58   0.3757   0.1473    0.950
  59   0.3605   0.1480    1.007
  60   0.3455   0.1483    1.065
  61   0.3306   0.1484    1.115
  62   0.3159   0.1482    1.162
  63   0.3014   0.1477    1.209
  64   0.2871   0.1469    1.260
  65   0.2730   0.1458    1.287
  66   0.2591   0.1445    1.334
  67   0.2455   0.1428    1.353
  68   0.2321   0.1408    1.386
  69   0.2190   0.1385    1.409
  70   0.2061   0.1360    1.416
  71   0.1935   0.1332    1.441
  72   0.1813   0.1301    1.447
  73   0.1693   0.1268    1.456
  74   0.1577   0.1233    1.458
  75   0.1464   0.1195    1.468
  76   0.1355   0.1156    1.475
  77   0.1249   0.1114    1.480
  78   0.1147   0.1072    1.490
  79   0.1049   0.1027    1.518
  80   0.0955   0.0981    1.525
  81   0.0865   0.0935    1.560
  82   0.0778   0.0887    1.613
  83   0.0696   0.0839    1.667
  84   0.0618   0.0790    1.730
  85   0.0545   0.0740    1.828
  86   0.0476   0.0691    1.945
  87   0.0411   0.0641    2.083
  88   0.0351   0.0591    2.252
  89   0.0296   0.0540    2.449
  90   0.0245   0.0490    2.699
  91   0.0199   0.0441    2.978
  92   0.0157   0.0391    3.305
  93   0.0120   0.0341    3.652
  94   0.0089   0.0292    4.062
  95   0.0062   0.0243    4.463
  96   0.0039   0.0194    4.871
  97   0.0022   0.0146    5.259
  98   0.0010   0.0097    5.551
  99   0.0002   0.0048    5.758
 100   0.0000   0.0000    8.577
 101   0.0002  -0.0025   11.129
 102   0.0010  -0.0049   10.630
 103   0.0022  -0.0073    9.932
 104   0.0039  -0.0096    9.056
 105   0.0062  -0.0117    8.149
 106   0.0089  -0.0136    7.278
 107   0.0120  -0.0153    6.452
 108   0.0157  -0.0168    5.671
 109   0.0199  -0.0180    5.006
 110   0.0245  -0.0189    4.357
 111   0.0296  -0.0195    3.825
 112   0.0351  -0.0197    3.333
 113   0.0411  -0.0197    2.888
 114   0.0476  -0.0193    2.484
 115   0.0545  -0.0186    2.136
 116   0.0618  -0.0176    1.821
 117   0.0696  -0.0162    1.522
 118   0.0778  -0.0146    1.262
 119   0.0865  -0.0127    1.022
 120   0.0955  -0.0105    0.799
 121   0.1049  -0.0080    0.598
 122   0.1147  -0.0054    0.414
 123   0.1249  -0.0026    0.240
 124   0.1355   0.0004    0.079
 125   0.1464   0.0034   -0.062
 126   0.1577   0.0066   -0.197
 127   0.1693   0.0098   -0.318
 128   0.1813   0.0131   -0.428
 129   0.1935   0.0163   -0.529
 130   0.2061   0.0195   -0.615
 131   0.2190   0.0226   -0.691
 132   0.2321   0.0256   -0.759
 133   0.2455   0.0285   -0.814
 134   0.2591   0.0312   -0.854
 135   0.2730   0.0338   -0.883
 136   0.2871   0.0361   -0.912
 137   0.3014   0.0383   -0.916
 138   0.3159   0.0403   -0.919
 139   0.3306   0.0421   -0.903
 140   0.3455   0.0436   -0.884
 141   0.3605   0.0449   -0.861
 142   0.3757   0.0461   -0.825
 143   0.3909   0.0470   -0.781
 144   0.4063   0.0477   -0.733
 145   0.4218   0.0482   -0.683
 146   0.4373   0.0485   -0.632
 147   0.4529   0.0486   -0.569
 148   0.4686   0.0486   -0.518
 149   0.4843   0.0485   -0.459
 150   0.5000   0.0482   -0.397
 151   0.5157   0.0478   -0.348
 152   0.5314   0.0473   -0.296
 153   0.5471   0.0468   -0.244
 154   0.5627   0.0461   -0.201
 155   0.5782   0.0455   -0.164
 156   0.5937   0.0447   -0.128
 157   0.6091   0.0440   -0.098
 158   0.6243   0.0432   -0.080
 159   0.6395   0.0424   -0.054
 160   0.6545   0.0416   -0.054
 161   0.6694   0.0408   -0.043
 162   0.6841   0.0401   -0.047
 163   0.6986   0.0393   -0.051
 164   0.7129   0.0384   -0.076
 165   0.7270   0.0376   -0.086
 166   0.7409   0.0368   -0.113
 167   0.7545   0.0360   -0.142
 168   0.7679   0.0351   -0.172
 169   0.7810   0.0343   -0.215
 170   0.7939   0.0334   -0.251
 171   0.8065   0.0324   -0.296
 172   0.8187   0.0314   -0.329
 173   0.8307   0.0304   -0.381
 174   0.8423   0.0294   -0.414
 175   0.8536   0.0282   -0.465
 176   0.8645   0.0271   -0.501
 177   0.8751   0.0258   -0.533
 178   0.8853   0.0245   -0.573
 179   0.8951   0.0232   -0.597
 180   0.9045   0.0218   -0.623
 181   0.9135   0.0204   -0.644
 182   0.9222   0.0189   -0.655
 183   0.9304   0.0174   -0.669
 184   0.9382   0.0159   -0.664
 185   0.9455   0.0144   -0.660
 186   0.9524   0.0129   -0.662
 187   0.9589   0.0114   -0.621
 188   0.9649   0.0100   -0.619
 189   0.9704   0.0086   -0.572
 190   0.9755   0.0072   -0.560
 191   0.9801   0.0060   -0.497
 192   0.9843   0.0048   -0.470
 193   0.9880   0.0037   -0.415
 194   0.9911   0.0028   -0.363
 195   0.9938   0.0020   -0.315
 196   0.9961   0.0013   -0.239
 197   0.9978   0.0007   -0.215
 198   0.9990   0.0003   -0.081
 199   0.9998   0.0001   -0.047

 Maximum panel corner angle = 11.129   at  i,x,y  = 101   0.0002  -0.0025

 Enter corner angle criterion for refinement (deg):   5.564
 Enter type of spline parameter (1=uniform, 2=arclength):   1
 Enter refinement x limits:  -0.10000   1.10000
 Number of points added:           20
 Max thickness =     0.117056  at x =   0.181
 Max camber    =     0.096674  at x =   0.391

 Maximum panel corner angle =  5.259   at  i,x,y  =  97   0.0022   0.0146

.GDES   c>  
 Buffer airfoil is not identical to current airfoil

 XFOIL   c>  
 Blunt trailing edge.  Gap =  0.00027

 Paneling parameters used...
   Number of panel nodes       160
   Panel bunching parameter    1.000
   TE/LE panel density ratio   0.150
   Refined-area/LE panel density ratio    0.200
   Top    side refined area x/c limits  1.000 1.000
   Bottom side refined area x/c limits  1.000 1.000

 XFOIL   c>  
Enter output filename   s>  
 XFOIL   c>  
.OPERi   c>   Current iteration limit:          20

Enter new iteration limit   i>  
Enter new iteration limit   i>  
Enter new iteration limit   i>  
.OPERi   c>  
 M  =    0.0000
 Re =  0.3000E+06

.OPERv   c>  
 Sonic Cp =   -420.65      Sonic Q/Qinf =    22.825


.OPERv   c>  
 Polar  1 newly created for accumulation
 Airfoil archived with polar: 000233                                          

Enter  polar save filename  OR  <return> for no file   s>  
 New polar save file available

Enter  polar dump filename  OR  <return> for no file   s>  
 Polar dump file will NOT be written

 Polar accumulation enabled

.OPERva   c>   Calculating unit vorticity distributions ...
 Calculating wake trajectory ...
 Calculating source influence matrix ...

 Solving BL system ...

 Initializing BL ...
    side            1  ...
 MRCHUE: Inverse mode at  50     Hk =   4.237
 MRCHUE: Inverse mode at  51     Hk =   5.069
 MRCHUE: Inverse mode at  52     Hk =   5.886
 MRCHUE: Inverse mode at  53     Hk =   6.695
 MRCHUE: Inverse mode at  54     Hk =   7.501
 MRCHUE: Inverse mode at  55     Hk =   8.306
 MRCHUE: Inverse mode at  56     Hk =   9.111
 MRCHUE: Inverse mode at  57     Hk =   6.870
 MRCHUE: Inverse mode at  58     Hk =   4.201
 MRCHUE: Inverse mode at  59     Hk =   2.568
 MRCHUE: Convergence failed at  86  side 1    Res =  0.3725E+01
    side            2  ...
 MRCHUE: Inverse mode at  23     Hk =   3.849
 MRCHUE: Inverse mode at  24     Hk =   4.534
 MRCHUE: Inverse mode at  25     Hk =   5.244
 MRCHUE: Inverse mode at  26     Hk =   5.991
 MRCHUE: Inverse mode at  27     Hk =   6.783
 MRCHUE: Inverse mode at  28     Hk =   7.625
 MRCHUE: Inverse mode at  29     Hk =   8.506
 MRCHUE: Inverse mode at  30     Hk =   9.406
 MRCHUE: Inverse mode at  31     Hk =   8.546
 MRCHUE: Inverse mode at  32     Hk =   5.065
 MRCHUE: Inverse mode at  33     Hk =   3.282
 MRCHUE: Inverse mode at  34     Hk =   2.500

 MRCHDU: Convergence failed at  86  side 1    Res =  0.4552E+01
 Side 1  free  transition at x/c =  0.4749   57
 Side 2  free  transition at x/c =  0.1792   31

   1   rms: 0.2406E+00   max: 0.1778E+01   T at   31  2   RLX: 0.491
       a =  2.000      CL =  1.3917
      Cm = -0.2446     CD =  0.01334   =>   CDf =  0.00879    CDp =  0.00455

 Side 1  free  transition at x/c =  0.4842   56
 Side 2  free  transition at x/c =  0.1627   31

   2   rms: 0.1321E+00   max: -.5302E+00   D at   34  2   RLX: 0.943
       a =  2.000      CL =  1.3218
      Cm = -0.2283     CD =  0.01671   =>   CDf =  0.00861    CDp =  0.00810

 MRCHDU: Convergence failed at  58  side 1    Res =  0.1575E+02
 MRCHDU: Convergence failed at  59  side 1    Res =  0.4839E+01
 MRCHDU: Convergence failed at  60  side 1    Res =  0.2215E+01
 MRCHDU: Convergence failed at  61  side 1    Res =  0.2287E+01
 MRCHDU: Convergence failed at  62  side 1    Res =  0.2475E+01
 MRCHDU: Convergence failed at  63  side 1    Res =  0.2668E+01
 MRCHDU: Convergence failed at  64  side 1    Res =  0.2996E+01
 MRCHDU: Convergence failed at  65  side 1    Res =  0.3398E+01
 MRCHDU: Convergence failed at  66  side 1    Res =  0.3889E+01
 MRCHDU: Convergence failed at  67  side 1    Res =  0.4484E+01
 MRCHDU: Convergence failed at  68  side 1    Res =  0.5210E+01
 MRCHDU: Convergence failed at  69  side 1    Res =  0.6117E+01
 MRCHDU: Convergence failed at  70  side 1    Res =  0.7260E+01
 MRCHDU: Convergence failed at  71  side 1    Res =  0.8772E+01
 MRCHDU: Convergence failed at  72  side 1    Res =  0.1088E+02
 MRCHDU: Convergence failed at  73  side 1    Res =  0.1399E+02
 MRCHDU: Convergence failed at  74  side 1    Res =  0.1938E+02
 MRCHDU: Convergence failed at  75  side 1    Res =  0.2964E+02
 MRCHDU: Convergence failed at  76  side 1    Res =  0.6408E+02
 MRCHDU: Convergence failed at  77  side 1    Res =  0.1022E+02
 MRCHDU: Convergence failed at  78  side 1    Res =  0.1212E+02
 MRCHDU: Convergence failed at  79  side 1    Res =  0.1390E+02
 MRCHDU: Convergence failed at  80  side 1    Res =  0.2471E+02
 MRCHDU: Convergence failed at  81  side 1    Res =  0.2976E+02
 MRCHDU: Convergence failed at  82  side 1    Res =  0.3293E+02
 MRCHDU: Convergence failed at  83  side 1    Res =  0.4586E+02
 MRCHDU: Convergence failed at  84  side 1    Res =  0.6783E+02
 MRCHDU: Convergence failed at  85  side 1    Res =  0.9641E+02
 Side 1  free  transition at x/c =  0.5027   57
 Side 2  free  transition at x/c =  0.1535   31

   3   rms: 0.6563E+00   max: 0.3203E+01   D at   84  1   RLX: 0.468
       a =  2.000      CL =  1.4694
      Cm = -0.3352     CD =  0.00883   =>   CDf =  0.00568    CDp =  0.00315

 MRCHDU: Convergence failed at  83  side 2    Res =  0.1577E+01
 Side 1  free  transition at x/c =  0.4810   56
 Side 2  free  transition at x/c =  0.1499   30

   4   rms: 0.2540E+00   max: -.1494E+01   D at   66  1   RLX: 0.335
       a =  2.000      CL =  1.2942
      Cm = -0.2441     CD =  0.02783   =>   CDf =  0.00661    CDp =  0.02122

 Side 1  free  transition at x/c =  0.4954   57
 Side 2  free  transition at x/c =  0.1479   30

   5   rms: 0.3373E+00   max: -.2403E+01   D at   62  1   RLX: 0.208
       a =  2.000      CL =  1.2630
      Cm = -0.2283     CD =  0.02449   =>   CDf =  0.00694    CDp =  0.01755

 Side 1  free  transition at x/c =  0.5039   56
 Side 2  free  transition at x/c =  0.1465   31

   6   rms: 0.3663E+00   max: -.2907E+01   D at   61  1   RLX: 0.172
       a =  2.000      CL =  1.2481
      Cm = -0.2267     CD =  0.02467   =>   CDf =  0.00686    CDp =  0.01781

 Side 1  free  transition at x/c =  0.5093   57
 Side 2  free  transition at x/c =  0.1442   31

   7   rms: 0.2661E+00   max: -.1393E+01   D at   63  1   RLX: 0.359
       a =  2.000      CL =  1.2708
      Cm = -0.2227     CD =  0.02130   =>   CDf =  0.00678    CDp =  0.01452

 Side 1  free  transition at x/c =  0.5113   58
 Side 2  free  transition at x/c =  0.1472   30

   8   rms: 0.7745E+00   max: -.4018E+01   D at   72  1   RLX: 0.124
       a =  2.000      CL =  1.2839
      Cm = -0.2156     CD =  0.01703   =>   CDf =  0.00701    CDp =  0.01002

 Side 1  free  transition at x/c =  0.5141   58
 Side 2  free  transition at x/c =  0.1496   30

   9   rms: 0.1872E+01   max: -.9222E+01   D at   77  1   RLX: 0.054
       a =  2.000      CL =  1.3352
      Cm = -0.2230     CD =  0.01491   =>   CDf =  0.00721    CDp =  0.00770

 Side 1  free  transition at x/c =  0.5155   58
 Side 2  free  transition at x/c =  0.1555   31

  10   rms: 0.4885E+00   max: -.2454E+01   D at   77  1   RLX: 0.204
       a =  2.000      CL =  1.3700
      Cm = -0.2294     CD =  0.01343   =>   CDf =  0.00753    CDp =  0.00590

 MRCHDU: Convergence failed at  68  side 1    Res =  0.2430E+00
 MRCHDU: Convergence failed at  83  side 1    Res =  0.9845E+00
 Side 1  free  transition at x/c =  0.5132   58
 Side 2  free  transition at x/c =  0.1589   31

  11   rms: 0.1677E+00   max: -.8568E+00   D at   79  1   RLX: 0.584
       a =  2.000      CL =  1.3655
      Cm = -0.2344     CD =  0.01421   =>   CDf =  0.00805    CDp =  0.00616

 Side 1  free  transition at x/c =  0.5054   58
 Side 2  free  transition at x/c =  0.1566   31

  12   rms: 0.8698E-01   max: -.4295E+00   D at   79  1
       a =  2.000      CL =  1.3307
      Cm = -0.2291     CD =  0.01661   =>   CDf =  0.00828    CDp =  0.00833

 Side 1  free  transition at x/c =  0.4986   57
 Side 2  free  transition at x/c =  0.1532   31

  13   rms: 0.2519E-01   max: -.1720E+00   D at   57  1
       a =  2.000      CL =  1.3156
      Cm = -0.2267     CD =  0.01650   =>   CDf =  0.00839    CDp =  0.00810

 Side 1  free  transition at x/c =  0.4988   57
 Side 2  free  transition at x/c =  0.1518   31

  14   rms: 0.4033E-02   max: 0.3406E-01   T at   31  2
       a =  2.000      CL =  1.3150
      Cm = -0.2265     CD =  0.01653   =>   CDf =  0.00837    CDp =  0.00816

 Side 1  free  transition at x/c =  0.4986   57
 Side 2  free  transition at x/c =  0.1514   31

  15   rms: 0.3640E-03   max: 0.3037E-02   T at   31  2
       a =  2.000      CL =  1.3150
      Cm = -0.2265     CD =  0.01653   =>   CDf =  0.00838    CDp =  0.00816

 Side 1  free  transition at x/c =  0.4986   57
 Side 2  free  transition at x/c =  0.1514   31

  16   rms: 0.5924E-05   max: 0.4424E-04   T at   31  2
       a =  2.000      CL =  1.3150
      Cm = -0.2265     CD =  0.01654   =>   CDf =  0.00838    CDp =  0.00816

 Point added to stored polar  1
 Point written to save file  000233M0.04.log                                 
 Dump file unspecified or not available
 Calculating wake trajectory ...
 Calculating source influence matrix ...

 Solving BL system ...

 Side 1  free  transition at x/c =  0.4986   57
 Side 2  free  transition at x/c =  0.1514   31

   1   rms: 0.3715E+00   max: -.2506E+01   T at   31  2   RLX: 0.200
       a =  3.000      CL =  1.3394
      Cm = -0.2273     CD =  0.01613   =>   CDf =  0.00839    CDp =  0.00774

 Side 1  free  transition at x/c =  0.4950   57
 Side 2  free  transition at x/c =  0.1602   31

   2   rms: 0.1341E+00   max: -.8616E+00   T at   31  2   RLX: 0.580
       a =  3.000      CL =  1.3890
      Cm = -0.2268     CD =  0.01679   =>   CDf =  0.00813    CDp =  0.00866

 Side 1  free  transition at x/c =  0.4869   58
 Side 2  free  transition at x/c =  0.1715   31

   3   rms: 0.5759E-01   max: -.3248E+00   T at   31  2
       a =  3.000      CL =  1.4290
      Cm = -0.2272     CD =  0.01722   =>   CDf =  0.00845    CDp =  0.00876

 Side 1  free  transition at x/c =  0.4828   57
 Side 2  free  transition at x/c =  0.1780   31

   4   rms: 0.2591E-01   max: -.1860E+00   D at   31  2
       a =  3.000      CL =  1.4264
      Cm = -0.2266     CD =  0.01693   =>   CDf =  0.00842    CDp =  0.00851

 Side 1  free  transition at x/c =  0.4821   57
 Side 2  free  transition at x/c =  0.1789   31

   5   rms: 0.1693E-02   max: 0.1802E-01   D at   32  2
       a =  3.000      CL =  1.4267
      Cm = -0.2267     CD =  0.01695   =>   CDf =  0.00838    CDp =  0.00857

 Side 1  free  transition at x/c =  0.4820   57
 Side 2  free  transition at x/c =  0.1789   31

   6   rms: 0.1577E-04   max: 0.1740E-03   D at   32  2
       a =  3.000      CL =  1.4267
      Cm = -0.2267     CD =  0.01695   =>   CDf =  0.00838    CDp =  0.00857

 Point added to stored polar  1
 Point written to save file  000233M0.04.log                                 
 Dump file unspecified or not available
 Calculating wake trajectory ...
 Calculating source influence matrix ...

 Solving BL system ...

 Side 1  free  transition at x/c =  0.4820   57
 Side 2  free  transition at x/c =  0.1789   31

   1   rms: 0.1690E+00   max: -.1260E+01   T at   31  2   RLX: 0.397
       a =  4.000      CL =  1.4693
      Cm = -0.2264     CD =  0.01711   =>   CDf =  0.00819    CDp =  0.00892

 Side 1  free  transition at x/c =  0.4753   58
 Side 2  free  transition at x/c =  0.1948   31

   2   rms: 0.1072E+00   max: 0.8034E+00   D at   31  2   RLX: 0.981
       a =  4.000      CL =  1.5342
      Cm = -0.2264     CD =  0.01746   =>   CDf =  0.00831    CDp =  0.00915

 Side 1  free  transition at x/c =  0.4663   57
 Side 2  free  transition at x/c =  0.2129   32

   3   rms: 0.2354E-01   max: 0.2987E+00   D at   32  2
       a =  4.000      CL =  1.5370
      Cm = -0.2267     CD =  0.01758   =>   CDf =  0.00839    CDp =  0.00919

 Side 1  free  transition at x/c =  0.4662   57
 Side 2  free  transition at x/c =  0.2137   32

   4   rms: 0.1245E-02   max: 0.1049E-01   D at   33  2
       a =  4.000      CL =  1.5370
      Cm = -0.2267     CD =  0.01759   =>   CDf =  0.00838    CDp =  0.00921

 Side 1  free  transition at x/c =  0.4662   57
 Side 2  free  transition at x/c =  0.2136   32

   5   rms: 0.9366E-05   max: 0.1458E-03   D at   36  2
       a =  4.000      CL =  1.5370
      Cm = -0.2267     CD =  0.01759   =>   CDf =  0.00838    CDp =  0.00921

 Point added to stored polar  1
 Point written to save file  000233M0.04.log                                 
 Dump file unspecified or not available
 Calculating wake trajectory ...
 Calculating source influence matrix ...

 Solving BL system ...

 Side 1  free  transition at x/c =  0.4662   57
 Side 2  free  transition at x/c =  0.2136   32

   1   rms: 0.1680E+00   max: -.1336E+01   T at   32  2   RLX: 0.374
       a =  5.000      CL =  1.5752
      Cm = -0.2261     CD =  0.01777   =>   CDf =  0.00817    CDp =  0.00960

 MRCHDU: Convergence failed at  33  side 2    Res =  0.6097E+01
 MRCHDU: Convergence failed at  34  side 2    Res =  0.7666E+01
 MRCHDU: Convergence failed at  35  side 2    Res =  0.4864E+01
 MRCHDU: Convergence failed at  36  side 2    Res =  0.3600E+01
 MRCHDU: Convergence failed at  37  side 2    Res =  0.4787E+01
 MRCHDU: Convergence failed at  38  side 2    Res =  0.5485E+01
 MRCHDU: Convergence failed at  39  side 2    Res =  0.5583E+01
 MRCHDU: Convergence failed at  40  side 2    Res =  0.5185E+01
 MRCHDU: Convergence failed at  41  side 2    Res =  0.4500E+01
 MRCHDU: Convergence failed at  42  side 2    Res =  0.3781E+01
 MRCHDU: Convergence failed at  43  side 2    Res =  0.3083E+01
 MRCHDU: Convergence failed at  44  side 2    Res =  0.2493E+01
 MRCHDU: Convergence failed at  45  side 2    Res =  0.5968E+01
 MRCHDU: Convergence failed at  46  side 2    Res =  0.5809E+01
 MRCHDU: Convergence failed at  47  side 2    Res =  0.6341E+01
 MRCHDU: Convergence failed at  48  side 2    Res =  0.1207E+02
 Side 1  free  transition at x/c =  0.4602   58
 Side 2  free  transition at x/c =  0.2321   32

   2   rms: 0.1889E+00   max: -.9698E+00   D at   48  2   RLX: 0.516
       a =  5.000      CL =  1.5998
      Cm = -0.2253     CD =  0.01772   =>   CDf =  0.00767    CDp =  0.01005

 Side 1  free  transition at x/c =  0.4549   58
 Side 2  free  transition at x/c =  0.2468   33

   3   rms: 0.6391E-01   max: -.3732E+00   T at   33  2
       a =  5.000      CL =  1.6434
      Cm = -0.2261     CD =  0.01826   =>   CDf =  0.00825    CDp =  0.01000

 Side 1  free  transition at x/c =  0.4508   58
 Side 2  free  transition at x/c =  0.2638   34

   4   rms: 0.1612E-01   max: 0.2568E+00   D at   34  2
       a =  5.000      CL =  1.6444
      Cm = -0.2263     CD =  0.01825   =>   CDf =  0.00818    CDp =  0.01006

 Side 1  free  transition at x/c =  0.4509   58
 Side 2  free  transition at x/c =  0.2637   34

   5   rms: 0.1399E-02   max: -.1246E-01   D at   36  2
       a =  5.000      CL =  1.6444
      Cm = -0.2263     CD =  0.01826   =>   CDf =  0.00819    CDp =  0.01006

 Side 1  free  transition at x/c =  0.4509   58
 Side 2  free  transition at x/c =  0.2633   34

   6   rms: 0.1212E-04   max: -.2428E-03   D at   36  2
       a =  5.000      CL =  1.6444
      Cm = -0.2263     CD =  0.01826   =>   CDf =  0.00820    CDp =  0.01006

 Point added to stored polar  1
 Point written to save file  000233M0.04.log                                 
 Dump file unspecified or not available
 Calculating wake trajectory ...
 Calculating source influence matrix ...

 Solving BL system ...

 Side 1  free  transition at x/c =  0.4509   58
 Side 2  free  transition at x/c =  0.2633   34

   1   rms: 0.1855E+00   max: -.1539E+01   T at   34  2   RLX: 0.325
       a =  6.000      CL =  1.6807
      Cm = -0.2266     CD =  0.01868   =>   CDf =  0.00797    CDp =  0.01072

 Side 1  free  transition at x/c =  0.4467   58
 Side 2  free  transition at x/c =  0.2875   35

   2   rms: 0.1953E+00   max: -.1290E+01   T at   35  2   RLX: 0.388
       a =  6.000      CL =  1.7086
      Cm = -0.2267     CD =  0.01869   =>   CDf =  0.00818    CDp =  0.01051

 Side 1  free  transition at x/c =  0.4424   58
 Side 2  free  transition at x/c =  0.3156   36

   3   rms: 0.1077E+00   max: -.1201E+01   C at   36  2   RLX: 0.416
       a =  6.000      CL =  1.7264
      Cm = -0.2266     CD =  0.01894   =>   CDf =  0.00799    CDp =  0.01096

 Side 1  free  transition at x/c =  0.4394   58
 Side 2  free  transition at x/c =  0.3345   37

   4   rms: 0.8650E-01   max: -.1064E+01   C at   37  2   RLX: 0.470
       a =  6.000      CL =  1.7389
      Cm = -0.2266     CD =  0.01903   =>   CDf =  0.00793    CDp =  0.01110

 Side 1  free  transition at x/c =  0.4376   58
 Side 2  free  transition at x/c =  0.3603   39

   5   rms: 0.1531E+00   max: -.2369E+01   C at   39  2   RLX: 0.211
       a =  6.000      CL =  1.7432
      Cm = -0.2269     CD =  0.01905   =>   CDf =  0.00763    CDp =  0.01142

 Side 1  free  transition at x/c =  0.4372   59
 Side 2  free  transition at x/c =  0.3732   38

   6   rms: 0.2218E+01   max: 0.3951E+02   T at    2  1   RLX: 0.031
       a =  6.000      CL =  1.7441
      Cm = -0.2270     CD =  0.01911   =>   CDf =  0.00788    CDp =  0.01123

 Side 1  free  transition at x/c =  0.4371   59
 Side 2  free  transition at x/c =  0.3760   39

   7   rms: 0.1962E+00   max: -.3280E+01   C at   39  2   RLX: 0.152
       a =  6.000      CL =  1.7463
      Cm = -0.2271     CD =  0.01906   =>   CDf =  0.00787    CDp =  0.01119

 Side 1  free  transition at x/c =  0.4369   59
 Side 2  free  transition at x/c =  0.3912   39

   8   rms: 0.7663E-01   max: -.8041E+00   C at   39  2   RLX: 0.622
       a =  6.000      CL =  1.7512
      Cm = -0.2270     CD =  0.01903   =>   CDf =  0.00784    CDp =  0.01119

 Side 1  free  transition at x/c =  0.4362   59
 Side 2 forced transition at x/c =  1.0001   72

   9   rms: 0.2060E-01   max: 0.3472E+00   D at   39  2
       a =  6.000      CL =  1.7451
      Cm = -0.2249     CD =  0.01842   =>   CDf =  0.00714    CDp =  0.01128

 Side 1  free  transition at x/c =  0.4360   59
 Side 2 forced transition at x/c =  1.0001   72

  10   rms: 0.2376E-02   max: -.2179E-01   D at   39  2
       a =  6.000      CL =  1.7452
      Cm = -0.2249     CD =  0.01841   =>   CDf =  0.00714    CDp =  0.01127

 Side 1  free  transition at x/c =  0.4360   59
 Side 2 forced transition at x/c =  1.0001   72

  11   rms: 0.4750E-04   max: 0.2882E-03   D at   35  2
       a =  6.000      CL =  1.7452
      Cm = -0.2249     CD =  0.01841   =>   CDf =  0.00714    CDp =  0.01127

 Point added to stored polar  1
 Point written to save file  000233M0.04.log                                 
 Dump file unspecified or not available
 Calculating wake trajectory ...
 Calculating source influence matrix ...

 Solving BL system ...

 Side 1  free  transition at x/c =  0.4360   59
 Side 2 forced transition at x/c =  1.0001   72

   1   rms: 0.2424E+00   max: -.7855E+00   n at   71  2   RLX: 0.637
       a =  7.000      CL =  1.8099
      Cm = -0.2240     CD =  0.01916   =>   CDf =  0.00715    CDp =  0.01201

 Side 1  free  transition at x/c =  0.4282   58
 Side 2 forced transition at x/c =  1.0001   72

   2   rms: 0.5299E-01   max: -.9113E-01   D at   39  2
       a =  7.000      CL =  1.8415
      Cm = -0.2226     CD =  0.01974   =>   CDf =  0.00701    CDp =  0.01273

 Side 1  free  transition at x/c =  0.4209   59
 Side 2 forced transition at x/c =  1.0001   71

   3   rms: 0.5578E-02   max: -.3971E-01   D at    3  1
       a =  7.000      CL =  1.8435
      Cm = -0.2230     CD =  0.01976   =>   CDf =  0.00717    CDp =  0.01259

 Side 1  free  transition at x/c =  0.4214   59
 Side 2 forced transition at x/c =  1.0001   71

   4   rms: 0.5692E-03   max: -.5865E-02   D at    4  1
       a =  7.000      CL =  1.8436
      Cm = -0.2230     CD =  0.01976   =>   CDf =  0.00715    CDp =  0.01261

 Side 1  free  transition at x/c =  0.4214   59
 Side 2 forced transition at x/c =  1.0001   71

   5   rms: 0.1073E-05   max: 0.8320E-05   D at   59  1
       a =  7.000      CL =  1.8436
      Cm = -0.2230     CD =  0.01976   =>   CDf =  0.00715    CDp =  0.01261

 Point added to stored polar  1
 Point written to save file  000233M0.04.log                                 
 Dump file unspecified or not available
 Calculating wake trajectory ...
 Calculating source influence matrix ...

 Solving BL system ...

 Side 1  free  transition at x/c =  0.4214   59
 Side 2 forced transition at x/c =  1.0001   71

   1   rms: 0.1510E+00   max: -.2128E+00   n at   67  2
       a =  8.000      CL =  1.9393
      Cm = -0.2207     CD =  0.02099   =>   CDf =  0.00689    CDp =  0.01411

 Side 1  free  transition at x/c =  0.4081   59
 Side 2 forced transition at x/c =  1.0001   70

   2   rms: 0.2052E-01   max: -.1697E+00   D at   59  1
       a =  8.000      CL =  1.9366
      Cm = -0.2203     CD =  0.02122   =>   CDf =  0.00715    CDp =  0.01407

 Side 1  free  transition at x/c =  0.4072   59
 Side 2 forced transition at x/c =  1.0001   70

   3   rms: 0.1075E-02   max: -.5549E-02   D at   61  1
       a =  8.000      CL =  1.9376
      Cm = -0.2205     CD =  0.02125   =>   CDf =  0.00709    CDp =  0.01416

 Side 1  free  transition at x/c =  0.4070   59
 Side 2 forced transition at x/c =  1.0001   70

   4   rms: 0.1716E-04   max: 0.7510E-04   D at   72  2
       a =  8.000      CL =  1.9376
      Cm = -0.2205     CD =  0.02125   =>   CDf =  0.00709    CDp =  0.01415

 Point added to stored polar  1
 Point written to save file  000233M0.04.log                                 
 Dump file unspecified or not available
 Calculating wake trajectory ...
 Calculating source influence matrix ...

 Solving BL system ...

 Side 1  free  transition at x/c =  0.4070   59
 Side 2 forced transition at x/c =  1.0001   70

   1   rms: 0.1390E+00   max: 0.1444E+00   D at   78  2
       a =  9.000      CL =  2.0232
      Cm = -0.2166     CD =  0.02268   =>   CDf =  0.00680    CDp =  0.01588

 Side 1  free  transition at x/c =  0.3922   59
 Side 2 forced transition at x/c =  1.0001   69

   2   rms: 0.2833E-01   max: -.1459E+00   D at   60  1
       a =  9.000      CL =  2.0252
      Cm = -0.2171     CD =  0.02279   =>   CDf =  0.00706    CDp =  0.01573

 Side 1  free  transition at x/c =  0.3927   59
 Side 2 forced transition at x/c =  1.0001   69

   3   rms: 0.1160E-02   max: 0.7490E-02   T at   59  1
       a =  9.000      CL =  2.0261
      Cm = -0.2172     CD =  0.02287   =>   CDf =  0.00700    CDp =  0.01587

 Side 1  free  transition at x/c =  0.3925   59
 Side 2 forced transition at x/c =  1.0001   69

   4   rms: 0.4403E-04   max: 0.2180E-03   D at   72  2
       a =  9.000      CL =  2.0260
      Cm = -0.2172     CD =  0.02287   =>   CDf =  0.00700    CDp =  0.01587

 Point added to stored polar  1
 Point written to save file  000233M0.04.log                                 
 Dump file unspecified or not available
 Calculating wake trajectory ...
 Calculating source influence matrix ...

 Solving BL system ...

 Side 1  free  transition at x/c =  0.3925   59
 Side 2 forced transition at x/c =  1.0001   69

   1   rms: 0.1313E+00   max: 0.1862E+00   D at   77  2
       a = 10.000      CL =  2.0944
      Cm = -0.2104     CD =  0.02459   =>   CDf =  0.00669    CDp =  0.01791

 Side 1  free  transition at x/c =  0.3760   59
 Side 2 forced transition at x/c =  1.0001   68

   2   rms: 0.4075E-01   max: -.3069E+00   D at   60  1
       a = 10.000      CL =  2.1027
      Cm = -0.2120     CD =  0.02462   =>   CDf =  0.00656    CDp =  0.01806

 Side 1  free  transition at x/c =  0.3775   60
 Side 2 forced transition at x/c =  1.0001   67

   3   rms: 0.2589E-01   max: 0.4468E+00   D at    2  1
       a = 10.000      CL =  2.1054
      Cm = -0.2125     CD =  0.02467   =>   CDf =  0.00692    CDp =  0.01775

 Side 1  free  transition at x/c =  0.3773   60
 Side 2 forced transition at x/c =  1.0001   67

   4   rms: 0.1722E-02   max: 0.2241E-01   D at    4  1
       a = 10.000      CL =  2.1056
      Cm = -0.2126     CD =  0.02467   =>   CDf =  0.00687    CDp =  0.01780

 Side 1  free  transition at x/c =  0.3772   60
 Side 2 forced transition at x/c =  1.0001   67

   5   rms: 0.9196E-05   max: -.4732E-04   D at    4  1
       a = 10.000      CL =  2.1056
      Cm = -0.2126     CD =  0.02467   =>   CDf =  0.00687    CDp =  0.01780

 Point added to stored polar  1
 Point written to save file  000233M0.04.log                                 
 Dump file unspecified or not available
 Calculating wake trajectory ...
 Calculating source influence matrix ...

 Solving BL system ...

 Side 1  free  transition at x/c =  0.3772   60
 Side 2 forced transition at x/c =  1.0001   67

   1   rms: 0.1209E+00   max: -.5026E+00   C at   60  1   RLX: 0.995
       a = 11.000      CL =  2.1378
      Cm = -0.1995     CD =  0.02682   =>   CDf =  0.00689    CDp =  0.01993

 Side 1  free  transition at x/c =  0.3571   59
 Side 2 forced transition at x/c =  1.0001   67

   2   rms: 0.4890E-01   max: -.4038E+00   D at   60  1
       a = 11.000      CL =  2.1463
      Cm = -0.2014     CD =  0.02700   =>   CDf =  0.00633    CDp =  0.02067

 Side 1  free  transition at x/c =  0.3605   61
 Side 2 forced transition at x/c =  1.0001   66

   3   rms: 0.2203E-01   max: 0.2642E+00   T at    2  1
       a = 11.000      CL =  2.1618
      Cm = -0.2040     CD =  0.02681   =>   CDf =  0.00667    CDp =  0.02014

 Side 1  free  transition at x/c =  0.3592   60
 Side 2 forced transition at x/c =  1.0001   66

   4   rms: 0.9622E-02   max: 0.4484E-01   D at   93  1
       a = 11.000      CL =  2.1532
      Cm = -0.2025     CD =  0.02689   =>   CDf =  0.00664    CDp =  0.02025

 Side 1  free  transition at x/c =  0.3598   60
 Side 2 forced transition at x/c =  1.0001   66

   5   rms: 0.3173E-03   max: 0.4553E-02   D at   74  2
       a = 11.000      CL =  2.1533
      Cm = -0.2026     CD =  0.02688   =>   CDf =  0.00661    CDp =  0.02027

 Side 1  free  transition at x/c =  0.3597   60
 Side 2 forced transition at x/c =  1.0001   66

   6   rms: 0.5892E-05   max: 0.7059E-04   D at   74  2
       a = 11.000      CL =  2.1533
      Cm = -0.2026     CD =  0.02688   =>   CDf =  0.00661    CDp =  0.02027

 Point added to stored polar  1
 Point written to save file  000233M0.04.log                                 
 Dump file unspecified or not available
 Calculating wake trajectory ...
 Calculating source influence matrix ...

 Solving BL system ...

 Side 1  free  transition at x/c =  0.3597   60
 Side 2 forced transition at x/c =  1.0001   66

   1   rms: 0.1251E+00   max: -.6055E+00   C at   60  1   RLX: 0.826
       a = 12.000      CL =  2.1504
      Cm = -0.1880     CD =  0.02976   =>   CDf =  0.00663    CDp =  0.02313

 Side 1  free  transition at x/c =  0.3424   59
 Side 2 forced transition at x/c =  1.0001   66

   2   rms: 0.4586E-01   max: -.2499E+00   D at   60  1
       a = 12.000      CL =  2.1754
      Cm = -0.1901     CD =  0.03036   =>   CDf =  0.00647    CDp =  0.02389

 Side 1  free  transition at x/c =  0.3412   59
 Side 2 forced transition at x/c =  1.0001   66

   3   rms: 0.9152E-02   max: -.4222E-01   D at   79  2
       a = 12.000      CL =  2.1833
      Cm = -0.1913     CD =  0.03027   =>   CDf =  0.00583    CDp =  0.02444

 Side 1  free  transition at x/c =  0.3403   60
 Side 2 forced transition at x/c =  1.0001   65

   4   rms: 0.1477E-02   max: -.2433E-01   D at    2  1
       a = 12.000      CL =  2.1834
      Cm = -0.1913     CD =  0.03029   =>   CDf =  0.00625    CDp =  0.02404

 Side 1  free  transition at x/c =  0.3403   60
 Side 2 forced transition at x/c =  1.0001   65

   5   rms: 0.7343E-03   max: -.9645E-02   D at    4  1
       a = 12.000      CL =  2.1834
      Cm = -0.1913     CD =  0.03029   =>   CDf =  0.00625    CDp =  0.02404

 Side 1  free  transition at x/c =  0.3403   60
 Side 2 forced transition at x/c =  1.0001   65

   6   rms: 0.3936E-05   max: 0.3820E-04   C at   65  2
       a = 12.000      CL =  2.1834
      Cm = -0.1913     CD =  0.03029   =>   CDf =  0.00625    CDp =  0.02404

 Point added to stored polar  1
 Point written to save file  000233M0.04.log                                 
 Dump file unspecified or not available
 Calculating wake trajectory ...
 Calculating source influence matrix ...

 Solving BL system ...

 Side 1  free  transition at x/c =  0.3403   60
 Side 2 forced transition at x/c =  1.0001   65

   1   rms: 0.1221E+00   max: 0.4125E+00   T at   60  1   RLX: 0.886
       a = 13.000      CL =  2.2016
      Cm = -0.1814     CD =  0.03438   =>   CDf =  0.00627    CDp =  0.02811

 Side 1  free  transition at x/c =  0.3216   59
 Side 2 forced transition at x/c =  1.0001   65

   2   rms: 0.2468E-01   max: -.2217E+00   D at   59  1
       a = 13.000      CL =  2.2036
      Cm = -0.1809     CD =  0.03530   =>   CDf =  0.00608    CDp =  0.02922

 Side 1  free  transition at x/c =  0.3219   59
 Side 2 forced transition at x/c =  1.0001   65

   3   rms: 0.6013E-02   max: -.2897E-01   D at   89  1
       a = 13.000      CL =  2.2086
      Cm = -0.1816     CD =  0.03513   =>   CDf =  0.00587    CDp =  0.02927

 Side 1  free  transition at x/c =  0.3211   59
 Side 2 forced transition at x/c =  1.0001   65

   4   rms: 0.1627E-03   max: -.1024E-02   D at   76  2
       a = 13.000      CL =  2.2087
      Cm = -0.1816     CD =  0.03515   =>   CDf =  0.00588    CDp =  0.02926

 Side 1  free  transition at x/c =  0.3211   59
 Side 2 forced transition at x/c =  1.0001   65

   5   rms: 0.8590E-05   max: -.3703E-04   D at   77  2
       a = 13.000      CL =  2.2087
      Cm = -0.1816     CD =  0.03515   =>   CDf =  0.00588    CDp =  0.02926

 Point added to stored polar  1
 Point written to save file  000233M0.04.log                                 
 Dump file unspecified or not available
 Calculating wake trajectory ...
 Calculating source influence matrix ...

 Solving BL system ...

 Side 1  free  transition at x/c =  0.3211   59
 Side 2 forced transition at x/c =  1.0001   65

   1   rms: 0.1235E+00   max: 0.4170E+00   T at   59  1   RLX: 0.761
       a = 14.000      CL =  2.2201
      Cm = -0.1745     CD =  0.04003   =>   CDf =  0.00547    CDp =  0.03456

 Side 1  free  transition at x/c =  0.3047   59
 Side 2 forced transition at x/c =  1.0001   64

   2   rms: 0.3217E-01   max: -.2172E+00   D at   59  1
       a = 14.000      CL =  2.2147
      Cm = -0.1724     CD =  0.04259   =>   CDf =  0.00574    CDp =  0.03685

 Side 1  free  transition at x/c =  0.3006   59
 Side 2 forced transition at x/c =  1.0001   64

   3   rms: 0.6982E-02   max: -.4207E-01   D at   87  1
       a = 14.000      CL =  2.2199
      Cm = -0.1729     CD =  0.04219   =>   CDf =  0.00551    CDp =  0.03668

 Side 1  free  transition at x/c =  0.3004   59
 Side 2 forced transition at x/c =  1.0001   64

   4   rms: 0.4471E-03   max: -.2340E-02   D at   77  2
       a = 14.000      CL =  2.2203
      Cm = -0.1730     CD =  0.04220   =>   CDf =  0.00551    CDp =  0.03669

 Side 1  free  transition at x/c =  0.3004   59
 Side 2 forced transition at x/c =  1.0001   64

   5   rms: 0.1445E-04   max: -.9675E-04   D at   77  2
       a = 14.000      CL =  2.2203
      Cm = -0.1730     CD =  0.04220   =>   CDf =  0.00551    CDp =  0.03669

 Point added to stored polar  1
 Point written to save file  000233M0.04.log                                 
 Dump file unspecified or not available
 Calculating wake trajectory ...
 Calculating source influence matrix ...

 Solving BL system ...

 Side 1  free  transition at x/c =  0.3004   59
 Side 2 forced transition at x/c =  1.0001   64

   1   rms: 0.1260E+00   max: 0.4418E+00   D at   83  1   RLX: 0.653
       a = 15.000      CL =  2.2240
      Cm = -0.1682     CD =  0.04796   =>   CDf =  0.00509    CDp =  0.04288

 Side 1  free  transition at x/c =  0.2859   59
 Side 2 forced transition at x/c =  1.0001   63

   2   rms: 0.5051E-01   max: -.2864E+00   D at   59  1
       a = 15.000      CL =  2.2122
      Cm = -0.1661     CD =  0.05286   =>   CDf =  0.00535    CDp =  0.04751

 Side 1  free  transition at x/c =  0.2770   58
 Side 2 forced transition at x/c =  1.0001   63

   3   rms: 0.6821E-02   max: -.5923E-01   C at   58  1
       a = 15.000      CL =  2.2128
      Cm = -0.1661     CD =  0.05257   =>   CDf =  0.00525    CDp =  0.04731

 Side 1  free  transition at x/c =  0.2777   58
 Side 2 forced transition at x/c =  1.0001   63

   4   rms: 0.9609E-03   max: -.4679E-02   D at   83  1
       a = 15.000      CL =  2.2136
      Cm = -0.1661     CD =  0.05254   =>   CDf =  0.00521    CDp =  0.04733

 Side 1  free  transition at x/c =  0.2776   58
 Side 2 forced transition at x/c =  1.0001   63

   5   rms: 0.4962E-04   max: -.3489E-03   D at   77  2
       a = 15.000      CL =  2.2137
      Cm = -0.1661     CD =  0.05254   =>   CDf =  0.00521    CDp =  0.04734

 Point added to stored polar  1
 Point written to save file  000233M0.04.log                                 
 Dump file unspecified or not available

.OPERva   c>  
 XFOIL   c>  
0.1
resp: 
 ===================================================
  XFOIL Version 6.97
  Copyright (C) 2000   Mark Drela, Harold Youngren

  This software comes with ABSOLUTELY NO WARRANTY,
    subject to the GNU General Public License.

  Caveat computor
 ===================================================

 File  xfoil.def  not found

   QUIT    Exit program

  .OPER    Direct operating point(s)
  .MDES    Complex mapping design routine
  .QDES    Surface speed design routine
  .GDES    Geometry design routine

   SAVE f  Write airfoil to labeled coordinate file
   PSAV f  Write airfoil to plain coordinate file
   ISAV f  Write airfoil to ISES coordinate file
   MSAV f  Write airfoil to MSES coordinate file
   REVE    Reverse written-airfoil node ordering
   DELI i  Change written-airfoil file delimiters

   LOAD f  Read buffer airfoil from coordinate file
   NACA i  Set NACA 4,5-digit airfoil and buffer airfoil
   INTE    Set buffer airfoil by interpolating two airfoils
   NORM    Buffer airfoil normalization toggle
   HALF    Halve the number of points in buffer airfoil
   XYCM rr Change CM reference location, currently  0.25000 0.00000

   BEND    Display structural properties of current airfoil

   PCOP    Set current-airfoil panel nodes directly from buffer airfoil points
   PANE    Set current-airfoil panel nodes ( 160 ) based on curvature
  .PPAR    Show/change paneling

  .PLOP    Plotting options

   WDEF f  Write  current-settings file
   RDEF f  Reread current-settings file
   NAME s  Specify new airfoil name
   NINC    Increment name version number

   Z       Zoom    | (available in all menus)
   U       Unzoom  | 

 XFOIL   c>   ...............................................

  G raphics-enable flag:        T
  S ize of plot object          10.00"
  A spect ratio of plot object   0.5500
  P age dimensions              11.00 x  8.50"
  M argins from page edges       0.00",  0.00"
  F ont size (relative)          0.0150
  W indow/screen size fraction   0.8000
  B lowup input method:        Cursor    
  O rientation of plot:        Landscape 
  C olor PostScript output?     F

      Option, Value   (or <Return>)    c>   ...............................................

  G raphics-enable flag:        F
  S ize of plot object          10.00"
  A spect ratio of plot object   0.5500
  P age dimensions              11.00 x  8.50"
  M argins from page edges       0.00",  0.00"
  F ont size (relative)          0.0150
  W indow/screen size fraction   0.8000
  B lowup input method:        Cursor    
  O rientation of plot:        Landscape 
  C olor PostScript output?     F

      Option, Value   (or <Return>)    c>  
 XFOIL   c>  
 Labeled airfoil file.  Name:  000233                                          

 Number of input coordinate points: 200
 Clockwise ordering
 Max thickness =     0.117079  at x =   0.181
 Max camber    =     0.096217  at x =   0.391

  LE  x,y  =  -0.00001   0.00073  |   Chord =   0.99989
  TE  x,y  =   0.99988   0.00006  |

 Current airfoil nodes set from buffer airfoil nodes ( 200 )

 XFOIL   c>  
 You are working with the buffer airfoil

.GDES   c>  
  i       x        y      angle
   2   0.9990   0.0005    0.014
   3   0.9978   0.0011    0.141
   4   0.9961   0.0019    0.154
   5   0.9938   0.0029    0.221
   6   0.9911   0.0042    0.237
   7   0.9880   0.0057    0.281
   8   0.9843   0.0073    0.326
   9   0.9801   0.0092    0.341
  10   0.9755   0.0112    0.381
  11   0.9704   0.0134    0.396
  12   0.9649   0.0158    0.433
  13   0.9589   0.0183    0.444
  14   0.9524   0.0210    0.469
  15   0.9455   0.0237    0.479
  16   0.9382   0.0266    0.488
  17   0.9304   0.0295    0.490
  18   0.9222   0.0325    0.505
  19   0.9135   0.0356    0.494
  20   0.9045   0.0388    0.495
  21   0.8951   0.0420    0.487
  22   0.8853   0.0453    0.475
  23   0.8751   0.0485    0.464
  24   0.8645   0.0518    0.451
  25   0.8536   0.0552    0.428
  26   0.8423   0.0585    0.419
  27   0.8307   0.0618    0.390
  28   0.8187   0.0652    0.374
  29   0.8065   0.0685    0.356
  30   0.7939   0.0719    0.331
  31   0.7810   0.0752    0.313
  32   0.7679   0.0786    0.290
  33   0.7545   0.0819    0.284
  34   0.7409   0.0852    0.258
  35   0.7270   0.0886    0.251
  36   0.7129   0.0919    0.245
  37   0.6986   0.0952    0.233
  38   0.6841   0.0984    0.230
  39   0.6694   0.1017    0.236
  40   0.6545   0.1049    0.236
  41   0.6395   0.1081    0.248
  42   0.6243   0.1113    0.261
  43   0.6091   0.1144    0.279
  44   0.5937   0.1175    0.298
  45   0.5782   0.1205    0.330
  46   0.5627   0.1234    0.358
  47   0.5471   0.1262    0.388
  48   0.5314   0.1289    0.434
  49   0.5157   0.1315    0.467
  50   0.5000   0.1340    0.520
  51   0.4843   0.1363    0.561
  52   0.4686   0.1385    0.621
  53   0.4529   0.1405    0.666
  54   0.4373   0.1423    0.724
  55   0.4218   0.1439    0.782
  56   0.4063   0.1453    0.835
  57   0.3909   0.1464    0.896
  58   0.3757   0.1473    0.950
  59   0.3605   0.1480    1.007
  60   0.3455   0.1483    1.065
  61   0.3306   0.1484    1.115
  62   0.3159   0.1482    1.162
  63   0.3014   0.1477    1.209
  64   0.2871   0.1469    1.260
  65   0.2730   0.1458    1.287
  66   0.2591   0.1445    1.334
  67   0.2455   0.1428    1.353
  68   0.2321   0.1408    1.386
  69   0.2190   0.1385    1.409
  70   0.2061   0.1360    1.416
  71   0.1935   0.1332    1.441
  72   0.1813   0.1301    1.447
  73   0.1693   0.1268    1.456
  74   0.1577   0.1233    1.458
  75   0.1464   0.1195    1.468
  76   0.1355   0.1156    1.475
  77   0.1249   0.1114    1.480
  78   0.1147   0.1072    1.490
  79   0.1049   0.1027    1.518
  80   0.0955   0.0981    1.525
  81   0.0865   0.0935    1.560
  82   0.0778   0.0887    1.613
  83   0.0696   0.0839    1.667
  84   0.0618   0.0790    1.730
  85   0.0545   0.0740    1.828
  86   0.0476   0.0691    1.945
  87   0.0411   0.0641    2.083
  88   0.0351   0.0591    2.252
  89   0.0296   0.0540    2.449
  90   0.0245   0.0490    2.699
  91   0.0199   0.0441    2.978
  92   0.0157   0.0391    3.305
  93   0.0120   0.0341    3.652
  94   0.0089   0.0292    4.062
  95   0.0062   0.0243    4.463
  96   0.0039   0.0194    4.871
  97   0.0022   0.0146    5.259
  98   0.0010   0.0097    5.551
  99   0.0002   0.0048    5.758
 100   0.0000   0.0000    8.577
 101   0.0002  -0.0025   11.129
 102   0.0010  -0.0049   10.630
 103   0.0022  -0.0073    9.932
 104   0.0039  -0.0096    9.056
 105   0.0062  -0.0117    8.149
 106   0.0089  -0.0136    7.278
 107   0.0120  -0.0153    6.452
 108   0.0157  -0.0168    5.671
 109   0.0199  -0.0180    5.006
 110   0.0245  -0.0189    4.357
 111   0.0296  -0.0195    3.825
 112   0.0351  -0.0197    3.333
 113   0.0411  -0.0197    2.888
 114   0.0476  -0.0193    2.484
 115   0.0545  -0.0186    2.136
 116   0.0618  -0.0176    1.821
 117   0.0696  -0.0162    1.522
 118   0.0778  -0.0146    1.262
 119   0.0865  -0.0127    1.022
 120   0.0955  -0.0105    0.799
 121   0.1049  -0.0080    0.598
 122   0.1147  -0.0054    0.414
 123   0.1249  -0.0026    0.240
 124   0.1355   0.0004    0.079
 125   0.1464   0.0034   -0.062
 126   0.1577   0.0066   -0.197
 127   0.1693   0.0098   -0.318
 128   0.1813   0.0131   -0.428
 129   0.1935   0.0163   -0.529
 130   0.2061   0.0195   -0.615
 131   0.2190   0.0226   -0.691
 132   0.2321   0.0256   -0.759
 133   0.2455   0.0285   -0.814
 134   0.2591   0.0312   -0.854
 135   0.2730   0.0338   -0.883
 136   0.2871   0.0361   -0.912
 137   0.3014   0.0383   -0.916
 138   0.3159   0.0403   -0.919
 139   0.3306   0.0421   -0.903
 140   0.3455   0.0436   -0.884
 141   0.3605   0.0449   -0.861
 142   0.3757   0.0461   -0.825
 143   0.3909   0.0470   -0.781
 144   0.4063   0.0477   -0.733
 145   0.4218   0.0482   -0.683
 146   0.4373   0.0485   -0.632
 147   0.4529   0.0486   -0.569
 148   0.4686   0.0486   -0.518
 149   0.4843   0.0485   -0.459
 150   0.5000   0.0482   -0.397
 151   0.5157   0.0478   -0.348
 152   0.5314   0.0473   -0.296
 153   0.5471   0.0468   -0.244
 154   0.5627   0.0461   -0.201
 155   0.5782   0.0455   -0.164
 156   0.5937   0.0447   -0.128
 157   0.6091   0.0440   -0.098
 158   0.6243   0.0432   -0.080
 159   0.6395   0.0424   -0.054
 160   0.6545   0.0416   -0.054
 161   0.6694   0.0408   -0.043
 162   0.6841   0.0401   -0.047
 163   0.6986   0.0393   -0.051
 164   0.7129   0.0384   -0.076
 165   0.7270   0.0376   -0.086
 166   0.7409   0.0368   -0.113
 167   0.7545   0.0360   -0.142
 168   0.7679   0.0351   -0.172
 169   0.7810   0.0343   -0.215
 170   0.7939   0.0334   -0.251
 171   0.8065   0.0324   -0.296
 172   0.8187   0.0314   -0.329
 173   0.8307   0.0304   -0.381
 174   0.8423   0.0294   -0.414
 175   0.8536   0.0282   -0.465
 176   0.8645   0.0271   -0.501
 177   0.8751   0.0258   -0.533
 178   0.8853   0.0245   -0.573
 179   0.8951   0.0232   -0.597
 180   0.9045   0.0218   -0.623
 181   0.9135   0.0204   -0.644
 182   0.9222   0.0189   -0.655
 183   0.9304   0.0174   -0.669
 184   0.9382   0.0159   -0.664
 185   0.9455   0.0144   -0.660
 186   0.9524   0.0129   -0.662
 187   0.9589   0.0114   -0.621
 188   0.9649   0.0100   -0.619
 189   0.9704   0.0086   -0.572
 190   0.9755   0.0072   -0.560
 191   0.9801   0.0060   -0.497
 192   0.9843   0.0048   -0.470
 193   0.9880   0.0037   -0.415
 194   0.9911   0.0028   -0.363
 195   0.9938   0.0020   -0.315
 196   0.9961   0.0013   -0.239
 197   0.9978   0.0007   -0.215
 198   0.9990   0.0003   -0.081
 199   0.9998   0.0001   -0.047

 Maximum panel corner angle = 11.129   at  i,x,y  = 101   0.0002  -0.0025

 Enter corner angle criterion for refinement (deg):   5.564
 Enter type of spline parameter (1=uniform, 2=arclength):   1
 Enter refinement x limits:  -0.10000   1.10000
 Number of points added:           20
 Max thickness =     0.117056  at x =   0.181
 Max camber    =     0.096674  at x =   0.391

 Maximum panel corner angle =  5.259   at  i,x,y  =  97   0.0022   0.0146

.GDES   c>  
 Buffer airfoil is not identical to current airfoil

 XFOIL   c>  
 Blunt trailing edge.  Gap =  0.00027

 Paneling parameters used...
   Number of panel nodes       160
   Panel bunching parameter    1.000
   TE/LE panel density ratio   0.150
   Refined-area/LE panel density ratio    0.200
   Top    side refined area x/c limits  1.000 1.000
   Bottom side refined area x/c limits  1.000 1.000

 XFOIL   c>  
.OPERi   c>   Current iteration limit:          20

Enter new iteration limit   i>  
Enter new iteration limit   i>  
Enter new iteration limit   i>  
.OPERi   c>  
 M  =    0.0000
 Re =  0.3000E+06

.OPERv   c>  
 Sonic Cp =    -66.86      Sonic Q/Qinf =     9.138


.OPERv   c>  
 Polar  1 newly created for accumulation
 Airfoil archived with polar: 000233                                          

Enter  polar save filename  OR  <return> for no file   s>  
 New polar save file available

Enter  polar dump filename  OR  <return> for no file   s>  
 Polar dump file will NOT be written

 Polar accumulation enabled

.OPERva   c>   Calculating unit vorticity distributions ...
 Calculating wake trajectory ...
 Calculating source influence matrix ...

 Solving BL system ...

 Initializing BL ...
    side            1  ...
 MRCHUE: Inverse mode at  50     Hk =   4.277
 MRCHUE: Inverse mode at  51     Hk =   5.108
 MRCHUE: Inverse mode at  52     Hk =   5.926
 MRCHUE: Inverse mode at  53     Hk =   6.735
 MRCHUE: Inverse mode at  54     Hk =   7.541
 MRCHUE: Inverse mode at  55     Hk =   8.346
 MRCHUE: Inverse mode at  56     Hk =   9.152
 MRCHUE: Inverse mode at  57     Hk =   6.642
 MRCHUE: Inverse mode at  58     Hk =   4.076
 MRCHUE: Inverse mode at  59     Hk =   2.500
 MRCHUE: Convergence failed at  86  side 1    Res =  0.4048E+01
    side            2  ...
 MRCHUE: Inverse mode at  23     Hk =   3.856
 MRCHUE: Inverse mode at  24     Hk =   4.540
 MRCHUE: Inverse mode at  25     Hk =   5.251
 MRCHUE: Inverse mode at  26     Hk =   5.998
 MRCHUE: Inverse mode at  27     Hk =   6.791
 MRCHUE: Inverse mode at  28     Hk =   7.633
 MRCHUE: Inverse mode at  29     Hk =   8.515
 MRCHUE: Inverse mode at  30     Hk =   9.416
 MRCHUE: Inverse mode at  31     Hk =   8.487
 MRCHUE: Inverse mode at  32     Hk =   5.033
 MRCHUE: Inverse mode at  33     Hk =   3.251
 MRCHUE: Inverse mode at  34     Hk =   2.500

 MRCHDU: Convergence failed at  86  side 1    Res =  0.7141E+01
 Side 1  free  transition at x/c =  0.4738   57
 Side 2  free  transition at x/c =  0.1790   31

   1   rms: 0.2417E+00   max: 0.1765E+01   T at   31  2   RLX: 0.489
       a =  2.000      CL =  1.3995
      Cm = -0.2457     CD =  0.01339   =>   CDf =  0.00878    CDp =  0.00461

 Side 1  free  transition at x/c =  0.4828   56
 Side 2  free  transition at x/c =  0.1625   31

   2   rms: 0.1302E+00   max: -.5056E+00   D at   77  2   RLX: 0.989
       a =  2.000      CL =  1.3239
      Cm = -0.2282     CD =  0.01680   =>   CDf =  0.00858    CDp =  0.00823

 MRCHDU: Convergence failed at  58  side 1    Res =  0.3982E+03
 MRCHDU: Convergence failed at  59  side 1    Res =  0.5387E+01
 MRCHDU: Convergence failed at  60  side 1    Res =  0.2246E+01
 MRCHDU: Convergence failed at  61  side 1    Res =  0.2326E+01
 MRCHDU: Convergence failed at  62  side 1    Res =  0.2520E+01
 MRCHDU: Convergence failed at  63  side 1    Res =  0.2725E+01
 MRCHDU: Convergence failed at  64  side 1    Res =  0.3067E+01
 MRCHDU: Convergence failed at  65  side 1    Res =  0.3488E+01
 MRCHDU: Convergence failed at  66  side 1    Res =  0.3999E+01
 MRCHDU: Convergence failed at  67  side 1    Res =  0.4618E+01
 MRCHDU: Convergence failed at  68  side 1    Res =  0.5373E+01
 MRCHDU: Convergence failed at  69  side 1    Res =  0.6323E+01
 MRCHDU: Convergence failed at  70  side 1    Res =  0.7519E+01
 MRCHDU: Convergence failed at  71  side 1    Res =  0.9112E+01
 MRCHDU: Convergence failed at  72  side 1    Res =  0.1130E+02
 MRCHDU: Convergence failed at  73  side 1    Res =  0.1473E+02
 MRCHDU: Convergence failed at  74  side 1    Res =  0.2016E+02
 MRCHDU: Convergence failed at  75  side 1    Res =  0.3257E+02
 MRCHDU: Convergence failed at  76  side 1    Res =  0.8504E+02
 MRCHDU: Convergence failed at  77  side 1    Res =  0.1076E+02
 MRCHDU: Convergence failed at  78  side 1    Res =  0.1247E+02
 MRCHDU: Convergence failed at  79  side 1    Res =  0.1524E+02
 MRCHDU: Convergence failed at  80  side 1    Res =  0.2592E+02
 MRCHDU: Convergence failed at  81  side 1    Res =  0.2541E+02
 MRCHDU: Convergence failed at  82  side 1    Res =  0.3249E+02
 MRCHDU: Convergence failed at  83  side 1    Res =  0.4205E+02
 MRCHDU: Convergence failed at  84  side 1    Res =  0.4580E+03
 MRCHDU: Convergence failed at  85  side 1    Res =  0.6252E+02
 Side 1  free  transition at x/c =  0.5022   57
 Side 2  free  transition at x/c =  0.1523   31

   3   rms: 0.6578E+00   max: 0.3240E+01   D at   85  1   RLX: 0.463
       a =  2.000      CL =  1.4723
      Cm = -0.3358     CD =  0.00915   =>   CDf =  0.00569    CDp =  0.00346

 MRCHDU: Convergence failed at  83  side 2    Res =  0.1194E+01
 Side 1  free  transition at x/c =  0.4806   56
 Side 2  free  transition at x/c =  0.1493   30

   4   rms: 0.2398E+00   max: -.1221E+01   D at   62  1   RLX: 0.410
       a =  2.000      CL =  1.2822
      Cm = -0.2395     CD =  0.02754   =>   CDf =  0.00680    CDp =  0.02074

 Side 1  free  transition at x/c =  0.4979   56
 Side 2  free  transition at x/c =  0.1459   31

   5   rms: 0.3724E+00   max: -.2336E+01   D at   62  1   RLX: 0.214
       a =  2.000      CL =  1.2854
      Cm = -0.2306     CD =  0.02155   =>   CDf =  0.00643    CDp =  0.01512

 Side 1  free  transition at x/c =  0.5050   58
 Side 2  free  transition at x/c =  0.1475   30

   6   rms: 0.7931E+00   max: -.4032E+01   D at    2  1   RLX: 0.124
       a =  2.000      CL =  1.3154
      Cm = -0.2284     CD =  0.01764   =>   CDf =  0.00691    CDp =  0.01073

 Side 1  free  transition at x/c =  0.5093   58
 Side 2  free  transition at x/c =  0.1507   30

   7   rms: 0.2242E+01   max: -.1137E+02   D at   75  1   RLX: 0.044
       a =  2.000      CL =  1.3568
      Cm = -0.2310     CD =  0.01465   =>   CDf =  0.00713    CDp =  0.00752

 Side 1  free  transition at x/c =  0.5114   58
 Side 2  free  transition at x/c =  0.1567   31

   8   rms: 0.6455E+00   max: -.3199E+01   D at   76  1   RLX: 0.156
       a =  2.000      CL =  1.3901
      Cm = -0.2355     CD =  0.01275   =>   CDf =  0.00740    CDp =  0.00535

 MRCHDU: Convergence failed at  68  side 1    Res =  0.4848E+00
 Side 1  free  transition at x/c =  0.5115   58
 Side 2  free  transition at x/c =  0.1599   31

   9   rms: 0.2065E+00   max: -.1168E+01   D at   78  1   RLX: 0.428
       a =  2.000      CL =  1.3986
      Cm = -0.2417     CD =  0.01335   =>   CDf =  0.00794    CDp =  0.00541

 Side 1  free  transition at x/c =  0.5073   58
 Side 2  free  transition at x/c =  0.1588   31

  10   rms: 0.1290E+00   max: -.6142E+00   D at   80  1   RLX: 0.814
       a =  2.000      CL =  1.3531
      Cm = -0.2324     CD =  0.01529   =>   CDf =  0.00811    CDp =  0.00718

 Side 1  free  transition at x/c =  0.5009   57
 Side 2  free  transition at x/c =  0.1542   31

  11   rms: 0.4443E-01   max: -.2409E+00   D at   81  1
       a =  2.000      CL =  1.3236
      Cm = -0.2277     CD =  0.01655   =>   CDf =  0.00833    CDp =  0.00821

 Side 1  free  transition at x/c =  0.4970   57
 Side 2  free  transition at x/c =  0.1516   31

  12   rms: 0.6793E-02   max: 0.6729E-01   T at   31  2
       a =  2.000      CL =  1.3208
      Cm = -0.2272     CD =  0.01667   =>   CDf =  0.00837    CDp =  0.00831

 Side 1  free  transition at x/c =  0.4971   57
 Side 2  free  transition at x/c =  0.1508   30

  13   rms: 0.1156E-02   max: 0.1575E-01   D at   31  2
       a =  2.000      CL =  1.3208
      Cm = -0.2272     CD =  0.01668   =>   CDf =  0.00837    CDp =  0.00831

 Side 1  free  transition at x/c =  0.4971   57
 Side 2  free  transition at x/c =  0.1507   30

  14   rms: 0.3307E-04   max: 0.2633E-03   D at   31  2
       a =  2.000      CL =  1.3208
      Cm = -0.2272     CD =  0.01668   =>   CDf =  0.00837    CDp =  0.00831

 Point added to stored polar  1
 Point written to save file  000233M0.1.log                                  
 Dump file unspecified or not available
 Calculating wake trajectory ...
 Calculating source influence matrix ...

 Solving BL system ...

 Side 1  free  transition at x/c =  0.4971   57
 Side 2  free  transition at x/c =  0.1507   30

   1   rms: 0.1748E+00   max: -.1678E+01   T at   30  2   RLX: 0.298
       a =  3.000      CL =  1.3534
      Cm = -0.2269     CD =  0.01688   =>   CDf =  0.00838    CDp =  0.00850

 Side 1  free  transition at x/c =  0.4917   57
 Side 2  free  transition at x/c =  0.1616   31

   2   rms: 0.1418E+00   max: 0.1425E+01   D at   31  2
       a =  3.000      CL =  1.4329
      Cm = -0.2272     CD =  0.01709   =>   CDf =  0.00817    CDp =  0.00892

 Side 1  free  transition at x/c =  0.4821   57
 Side 2  free  transition at x/c =  0.1785   31

   3   rms: 0.2955E-01   max: 0.3098E+00   D at   31  2
       a =  3.000      CL =  1.4329
      Cm = -0.2273     CD =  0.01708   =>   CDf =  0.00839    CDp =  0.00868

 Side 1  free  transition at x/c =  0.4806   57
 Side 2  free  transition at x/c =  0.1783   31

   4   rms: 0.2189E-02   max: 0.1850E-01   D at   32  2
       a =  3.000      CL =  1.4332
      Cm = -0.2274     CD =  0.01706   =>   CDf =  0.00836    CDp =  0.00871

 Side 1  free  transition at x/c =  0.4805   57
 Side 2  free  transition at x/c =  0.1782   31

   5   rms: 0.1237E-04   max: 0.1446E-03   D at   32  2
       a =  3.000      CL =  1.4332
      Cm = -0.2274     CD =  0.01706   =>   CDf =  0.00836    CDp =  0.00870

 Point added to stored polar  1
 Point written to save file  000233M0.1.log                                  
 Dump file unspecified or not available
 Calculating wake trajectory ...
 Calculating source influence matrix ...

 Solving BL system ...

 Side 1  free  transition at x/c =  0.4805   57
 Side 2  free  transition at x/c =  0.1782   31

   1   rms: 0.1685E+00   max: -.1244E+01   T at   31  2   RLX: 0.402
       a =  4.000      CL =  1.4768
      Cm = -0.2271     CD =  0.01725   =>   CDf =  0.00817    CDp =  0.00908

 Side 1  free  transition at x/c =  0.4737   58
 Side 2  free  transition at x/c =  0.1937   31

   2   rms: 0.1091E+00   max: 0.7124E+00   D at    2  1   RLX: 0.897
       a =  4.000      CL =  1.5360
      Cm = -0.2270     CD =  0.01758   =>   CDf =  0.00832    CDp =  0.00926

 Side 1  free  transition at x/c =  0.4661   57
 Side 2  free  transition at x/c =  0.2096   32

   3   rms: 0.1749E-01   max: 0.2163E+00   D at   32  2
       a =  4.000      CL =  1.5437
      Cm = -0.2273     CD =  0.01770   =>   CDf =  0.00839    CDp =  0.00932

 Side 1  free  transition at x/c =  0.4649   57
 Side 2  free  transition at x/c =  0.2123   32

   4   rms: 0.2507E-02   max: -.2190E-01   D at   33  2
       a =  4.000      CL =  1.5439
      Cm = -0.2273     CD =  0.01771   =>   CDf =  0.00834    CDp =  0.00938

 Side 1  free  transition at x/c =  0.4648   57
 Side 2  free  transition at x/c =  0.2127   32

   5   rms: 0.4029E-05   max: -.6327E-04   D at   32  2
       a =  4.000      CL =  1.5439
      Cm = -0.2273     CD =  0.01771   =>   CDf =  0.00834    CDp =  0.00938

 Point added to stored polar  1
 Point written to save file  000233M0.1.log                                  
 Dump file unspecified or not available
 Calculating wake trajectory ...
 Calculating source influence matrix ...

 Solving BL system ...

 Side 1  free  transition at x/c =  0.4648   57
 Side 2  free  transition at x/c =  0.2127   32

   1   rms: 0.1676E+00   max: -.1320E+01   T at   32  2   RLX: 0.379
       a =  5.000      CL =  1.5832
      Cm = -0.2268     CD =  0.01793   =>   CDf =  0.00813    CDp =  0.00980

 Side 1  free  transition at x/c =  0.4585   58
 Side 2  free  transition at x/c =  0.2316   32

   2   rms: 0.1064E+00   max: 0.6867E+00   D at   32  2   RLX: 0.832
       a =  5.000      CL =  1.6397
      Cm = -0.2267     CD =  0.01828   =>   CDf =  0.00820    CDp =  0.01007

 Side 1  free  transition at x/c =  0.4504   58
 Side 2  free  transition at x/c =  0.2535   34

   3   rms: 0.4304E-01   max: -.2950E+00   T at   34  2
       a =  5.000      CL =  1.6535
      Cm = -0.2272     CD =  0.01839   =>   CDf =  0.00828    CDp =  0.01011

 Side 1  free  transition at x/c =  0.4497   58
 Side 2  free  transition at x/c =  0.2640   34

   4   rms: 0.3682E-02   max: 0.4097E-01   T at   34  2
       a =  5.000      CL =  1.6532
      Cm = -0.2271     CD =  0.01850   =>   CDf =  0.00822    CDp =  0.01028

 Side 1  free  transition at x/c =  0.4495   58
 Side 2  free  transition at x/c =  0.2621   34

   5   rms: 0.2677E-03   max: -.3329E-02   D at   34  2
       a =  5.000      CL =  1.6531
      Cm = -0.2271     CD =  0.01850   =>   CDf =  0.00823    CDp =  0.01027

 Side 1  free  transition at x/c =  0.4495   58
 Side 2  free  transition at x/c =  0.2621   34

   6   rms: 0.2680E-05   max: 0.1255E-04   T at   74  2
       a =  5.000      CL =  1.6531
      Cm = -0.2271     CD =  0.01850   =>   CDf =  0.00823    CDp =  0.01027

 Point added to stored polar  1
 Point written to save file  000233M0.1.log                                  
 Dump file unspecified or not available
 Calculating wake trajectory ...
 Calculating source influence matrix ...

 Solving BL system ...

 Side 1  free  transition at x/c =  0.4495   58
 Side 2  free  transition at x/c =  0.2621   34

   1   rms: 0.1928E+00   max: -.1602E+01   T at   34  2   RLX: 0.312
       a =  6.000      CL =  1.6900
      Cm = -0.2278     CD =  0.01907   =>   CDf =  0.00800    CDp =  0.01107

 Side 1  free  transition at x/c =  0.4450   58
 Side 2  free  transition at x/c =  0.2847   34

   2   rms: 0.1292E+00   max: -.1267E+01   T at   34  2   RLX: 0.394
       a =  6.000      CL =  1.7148
      Cm = -0.2267     CD =  0.01919   =>   CDf =  0.00818    CDp =  0.01101

 MRCHDU: Convergence failed at  36  side 2    Res =  0.2983E+01
 MRCHDU: Convergence failed at  37  side 2    Res =  0.4216E+01
 MRCHDU: Convergence failed at  38  side 2    Res =  0.1874E+02
 MRCHDU: Convergence failed at  39  side 2    Res =  0.1986E+02
 Side 1  free  transition at x/c =  0.4406   58
 Side 2  free  transition at x/c =  0.3122   36

   3   rms: 0.8930E-01   max: 0.5992E+00   C at   39  2   RLX: 0.837
       a =  6.000      CL =  1.7502
      Cm = -0.2262     CD =  0.01931   =>   CDf =  0.00758    CDp =  0.01173

 Side 1  free  transition at x/c =  0.4348   59
 Side 2  free  transition at x/c =  0.3804   39

   4   rms: 0.2707E+00   max: -.4791E+01   C at   39  2   RLX: 0.104
       a =  6.000      CL =  1.7521
      Cm = -0.2264     CD =  0.01947   =>   CDf =  0.00788    CDp =  0.01158

 Side 1  free  transition at x/c =  0.4347   59
 Side 2  free  transition at x/c =  0.3870   39

   5   rms: 0.8091E-01   max: -.8327E+00   T at   39  2   RLX: 0.600
       a =  6.000      CL =  1.7586
      Cm = -0.2270     CD =  0.01932   =>   CDf =  0.00788    CDp =  0.01144

 Side 1  free  transition at x/c =  0.4345   59
 Side 2 forced transition at x/c =  1.0001   72

   6   rms: 0.2050E-01   max: 0.3252E+00   D at   39  2
       a =  6.000      CL =  1.7536
      Cm = -0.2254     CD =  0.01862   =>   CDf =  0.00715    CDp =  0.01147

 Side 1  free  transition at x/c =  0.4346   59
 Side 2 forced transition at x/c =  1.0001   72

   7   rms: 0.2783E-02   max: 0.1996E-01   D at   40  2
       a =  6.000      CL =  1.7537
      Cm = -0.2254     CD =  0.01862   =>   CDf =  0.00714    CDp =  0.01147

 Side 1  free  transition at x/c =  0.4346   59
 Side 2 forced transition at x/c =  1.0001   72

   8   rms: 0.7455E-04   max: 0.4738E-03   D at   35  2
       a =  6.000      CL =  1.7537
      Cm = -0.2254     CD =  0.01862   =>   CDf =  0.00714    CDp =  0.01148

 Point added to stored polar  1
 Point written to save file  000233M0.1.log                                  
 Dump file unspecified or not available
 Calculating wake trajectory ...
 Calculating source influence matrix ...

 Solving BL system ...

 Side 1  free  transition at x/c =  0.4346   59
 Side 2 forced transition at x/c =  1.0001   72

   1   rms: 0.2537E+00   max: -.8362E+00   n at   40  2   RLX: 0.598
       a =  7.000      CL =  1.8162
      Cm = -0.2247     CD =  0.01942   =>   CDf =  0.00716    CDp =  0.01226

 Side 1  free  transition at x/c =  0.4275   58
 Side 2 forced transition at x/c =  1.0001   72

   2   rms: 0.5720E-01   max: -.9479E-01   D at   39  2
       a =  7.000      CL =  1.8494
      Cm = -0.2228     CD =  0.01998   =>   CDf =  0.00698    CDp =  0.01300

 Side 1  free  transition at x/c =  0.4192   59
 Side 2 forced transition at x/c =  1.0001   71

   3   rms: 0.7345E-02   max: -.6119E-01   D at   59  1
       a =  7.000      CL =  1.8520
      Cm = -0.2233     CD =  0.01999   =>   CDf =  0.00717    CDp =  0.01282

 Side 1  free  transition at x/c =  0.4199   59
 Side 2 forced transition at x/c =  1.0001   71

   4   rms: 0.5817E-03   max: -.6043E-02   D at    4  1
       a =  7.000      CL =  1.8521
      Cm = -0.2233     CD =  0.01999   =>   CDf =  0.00714    CDp =  0.01285

 Side 1  free  transition at x/c =  0.4199   59
 Side 2 forced transition at x/c =  1.0001   71

   5   rms: 0.1329E-05   max: -.1806E-04   C at   71  2
       a =  7.000      CL =  1.8521
      Cm = -0.2233     CD =  0.01999   =>   CDf =  0.00714    CDp =  0.01285

 Point added to stored polar  1
 Point written to save file  000233M0.1.log                                  
 Dump file unspecified or not available
 Calculating wake trajectory ...
 Calculating source influence matrix ...

 Solving BL system ...

 Side 1  free  transition at x/c =  0.4199   59
 Side 2 forced transition at x/c =  1.0001   71

   1   rms: 0.1515E+00   max: -.2150E+00   n at   43  2
       a =  8.000      CL =  1.9491
      Cm = -0.2210     CD =  0.02125   =>   CDf =  0.00687    CDp =  0.01438

 Side 1  free  transition at x/c =  0.4073   59
 Side 2 forced transition at x/c =  1.0001   70

   2   rms: 0.2090E-01   max: -.1768E+00   D at   59  1
       a =  8.000      CL =  1.9443
      Cm = -0.2202     CD =  0.02151   =>   CDf =  0.00711    CDp =  0.01440

 Side 1  free  transition at x/c =  0.4055   59
 Side 2 forced transition at x/c =  1.0001   70

   3   rms: 0.1470E-02   max: -.7938E-02   D at   72  2
       a =  8.000      CL =  1.9457
      Cm = -0.2205     CD =  0.02153   =>   CDf =  0.00706    CDp =  0.01447

 Side 1  free  transition at x/c =  0.4054   59
 Side 2 forced transition at x/c =  1.0001   70

   4   rms: 0.4056E-05   max: 0.6270E-04   C at   70  2
       a =  8.000      CL =  1.9457
      Cm = -0.2205     CD =  0.02153   =>   CDf =  0.00706    CDp =  0.01447

 Point added to stored polar  1
 Point written to save file  000233M0.1.log                                  
 Dump file unspecified or not available
 Calculating wake trajectory ...
 Calculating source influence matrix ...

 Solving BL system ...

 Side 1  free  transition at x/c =  0.4054   59
 Side 2 forced transition at x/c =  1.0001   70

   1   rms: 0.1392E+00   max: 0.1407E+00   D at   78  2
       a =  9.000      CL =  2.0327
      Cm = -0.2166     CD =  0.02299   =>   CDf =  0.00677    CDp =  0.01622

 Side 1  free  transition at x/c =  0.3913   59
 Side 2 forced transition at x/c =  1.0001   69

   2   rms: 0.2602E-01   max: -.1608E+00   D at   59  1
       a =  9.000      CL =  2.0317
      Cm = -0.2165     CD =  0.02315   =>   CDf =  0.00701    CDp =  0.01615

 Side 1  free  transition at x/c =  0.3912   59
 Side 2 forced transition at x/c =  1.0001   69

   3   rms: 0.1569E-02   max: -.7696E-02   D at   73  2
       a =  9.000      CL =  2.0330
      Cm = -0.2168     CD =  0.02322   =>   CDf =  0.00694    CDp =  0.01628

 Side 1  free  transition at x/c =  0.3910   59
 Side 2 forced transition at x/c =  1.0001   69

   4   rms: 0.4865E-04   max: 0.2409E-03   D at   72  2
       a =  9.000      CL =  2.0329
      Cm = -0.2168     CD =  0.02322   =>   CDf =  0.00694    CDp =  0.01628

 Point added to stored polar  1
 Point written to save file  000233M0.1.log                                  
 Dump file unspecified or not available
 Calculating wake trajectory ...
 Calculating source influence matrix ...

 Solving BL system ...

 Side 1  free  transition at x/c =  0.3910   59
 Side 2 forced transition at x/c =  1.0001   69

   1   rms: 0.1313E+00   max: 0.1792E+00   D at   77  2
       a = 10.000      CL =  2.1035
      Cm = -0.2102     CD =  0.02503   =>   CDf =  0.00662    CDp =  0.01840

 Side 1  free  transition at x/c =  0.3750   59
 Side 2 forced transition at x/c =  1.0001   68

   2   rms: 0.3615E-01   max: -.2313E+00   D at   60  1
       a = 10.000      CL =  2.1063
      Cm = -0.2107     CD =  0.02502   =>   CDf =  0.00685    CDp =  0.01817

 Side 1  free  transition at x/c =  0.3763   59
 Side 2 forced transition at x/c =  1.0001   68

   3   rms: 0.2615E-02   max: 0.1378E-01   D at   60  1
       a = 10.000      CL =  2.1087
      Cm = -0.2112     CD =  0.02511   =>   CDf =  0.00680    CDp =  0.01831

 Side 1  free  transition at x/c =  0.3760   59
 Side 2 forced transition at x/c =  1.0001   68

   4   rms: 0.1099E-03   max: -.7569E-03   C at   68  2
       a = 10.000      CL =  2.1086
      Cm = -0.2112     CD =  0.02511   =>   CDf =  0.00679    CDp =  0.01832

 Side 1  free  transition at x/c =  0.3760   59
 Side 2 forced transition at x/c =  1.0001   68

   5   rms: 0.4398E-05   max: -.4030E-04   C at   68  2
       a = 10.000      CL =  2.1086
      Cm = -0.2112     CD =  0.02511   =>   CDf =  0.00679    CDp =  0.01832

 Point added to stored polar  1
 Point written to save file  000233M0.1.log                                  
 Dump file unspecified or not available
 Calculating wake trajectory ...
 Calculating source influence matrix ...

 Solving BL system ...

 Side 1  free  transition at x/c =  0.3760   59
 Side 2 forced transition at x/c =  1.0001   68

   1   rms: 0.1186E+00   max: 0.4349E+00   T at   59  1
       a = 11.000      CL =  2.1373
      Cm = -0.1972     CD =  0.02745   =>   CDf =  0.00645    CDp =  0.02100

 Side 1  free  transition at x/c =  0.3561   59
 Side 2 forced transition at x/c =  1.0001   67

   2   rms: 0.5588E-01   max: -.3883E+00   D at   60  1
       a = 11.000      CL =  2.1491
      Cm = -0.1999     CD =  0.02744   =>   CDf =  0.00663    CDp =  0.02081

 Side 1  free  transition at x/c =  0.3596   59
 Side 2 forced transition at x/c =  1.0001   67

   3   rms: 0.7286E-02   max: 0.3265E-01   T at   59  1
       a = 11.000      CL =  2.1560
      Cm = -0.2011     CD =  0.02750   =>   CDf =  0.00655    CDp =  0.02095

 Side 1  free  transition at x/c =  0.3585   59
 Side 2 forced transition at x/c =  1.0001   67

   4   rms: 0.1221E-03   max: -.8961E-03   D at   60  1
       a = 11.000      CL =  2.1560
      Cm = -0.2011     CD =  0.02751   =>   CDf =  0.00653    CDp =  0.02097

 Side 1  free  transition at x/c =  0.3585   59
 Side 2 forced transition at x/c =  1.0001   67

   5   rms: 0.7497E-05   max: -.3112E-04   D at    2  2
       a = 11.000      CL =  2.1560
      Cm = -0.2011     CD =  0.02750   =>   CDf =  0.00653    CDp =  0.02097

 Point added to stored polar  1
 Point written to save file  000233M0.1.log                                  
 Dump file unspecified or not available
 Calculating wake trajectory ...
 Calculating source influence matrix ...

 Solving BL system ...

 Side 1  free  transition at x/c =  0.3585   59
 Side 2 forced transition at x/c =  1.0001   67

   1   rms: 0.1238E+00   max: 0.5213E+00   T at   59  1   RLX: 0.965
       a = 12.000      CL =  2.1599
      Cm = -0.1855     CD =  0.03106   =>   CDf =  0.00616    CDp =  0.02490

 Side 1  free  transition at x/c =  0.3383   59
 Side 2 forced transition at x/c =  1.0001   66

   2   rms: 0.4406E-01   max: -.2271E+00   D at   59  1
       a = 12.000      CL =  2.1805
      Cm = -0.1892     CD =  0.03107   =>   CDf =  0.00632    CDp =  0.02474

 Side 1  free  transition at x/c =  0.3396   59
 Side 2 forced transition at x/c =  1.0001   66

   3   rms: 0.6403E-02   max: -.3848E-01   D at   80  2
       a = 12.000      CL =  2.1857
      Cm = -0.1899     CD =  0.03113   =>   CDf =  0.00617    CDp =  0.02497

 Side 1  free  transition at x/c =  0.3386   59
 Side 2 forced transition at x/c =  1.0001   66

   4   rms: 0.1308E-03   max: 0.2011E-02   D at   89  1
       a = 12.000      CL =  2.1856
      Cm = -0.1899     CD =  0.03115   =>   CDf =  0.00618    CDp =  0.02497

 Side 1  free  transition at x/c =  0.3387   59
 Side 2 forced transition at x/c =  1.0001   66

   5   rms: 0.3855E-05   max: -.1859E-04   D at    2  2
       a = 12.000      CL =  2.1856
      Cm = -0.1899     CD =  0.03115   =>   CDf =  0.00618    CDp =  0.02497

 Point added to stored polar  1
 Point written to save file  000233M0.1.log                                  
 Dump file unspecified or not available
 Calculating wake trajectory ...
 Calculating source influence matrix ...

 Solving BL system ...

 Side 1  free  transition at x/c =  0.3387   59
 Side 2 forced transition at x/c =  1.0001   66

   1   rms: 0.1216E+00   max: 0.4172E+00   T at   59  1   RLX: 0.857
       a = 13.000      CL =  2.2061
      Cm = -0.1808     CD =  0.03519   =>   CDf =  0.00579    CDp =  0.02940

 Side 1  free  transition at x/c =  0.3208   59
 Side 2 forced transition at x/c =  1.0001   65

   2   rms: 0.2423E-01   max: -.2303E+00   D at   59  1
       a = 13.000      CL =  2.2042
      Cm = -0.1795     CD =  0.03652   =>   CDf =  0.00602    CDp =  0.03050

 Side 1  free  transition at x/c =  0.3199   59
 Side 2 forced transition at x/c =  1.0001   65

   3   rms: 0.5978E-02   max: -.3123E-01   D at   89  1
       a = 13.000      CL =  2.2091
      Cm = -0.1802     CD =  0.03634   =>   CDf =  0.00580    CDp =  0.03054

 Side 1  free  transition at x/c =  0.3193   59
 Side 2 forced transition at x/c =  1.0001   65

   4   rms: 0.1835E-03   max: -.1294E-02   D at   76  2
       a = 13.000      CL =  2.2093
      Cm = -0.1802     CD =  0.03635   =>   CDf =  0.00582    CDp =  0.03054

 Side 1  free  transition at x/c =  0.3193   59
 Side 2 forced transition at x/c =  1.0001   65

   5   rms: 0.7629E-05   max: -.4013E-04   D at   77  2
       a = 13.000      CL =  2.2093
      Cm = -0.1802     CD =  0.03635   =>   CDf =  0.00581    CDp =  0.03054

 Point added to stored polar  1
 Point written to save file  000233M0.1.log                                  
 Dump file unspecified or not available
 Calculating wake trajectory ...
 Calculating source influence matrix ...

 Solving BL system ...

 Side 1  free  transition at x/c =  0.3193   59
 Side 2 forced transition at x/c =  1.0001   65

   1   rms: 0.1237E+00   max: 0.4011E+00   D at   85  1   RLX: 0.732
       a = 14.000      CL =  2.2205
      Cm = -0.1736     CD =  0.04127   =>   CDf =  0.00540    CDp =  0.03587

 Side 1  free  transition at x/c =  0.3041   59
 Side 2 forced transition at x/c =  1.0001   64

   2   rms: 0.3630E-01   max: -.2225E+00   D at   59  1
       a = 14.000      CL =  2.2130
      Cm = -0.1711     CD =  0.04433   =>   CDf =  0.00566    CDp =  0.03866

 Side 1  free  transition at x/c =  0.2982   59
 Side 2 forced transition at x/c =  1.0001   64

   3   rms: 0.7580E-02   max: -.4972E-01   D at   87  1
       a = 14.000      CL =  2.2174
      Cm = -0.1716     CD =  0.04394   =>   CDf =  0.00549    CDp =  0.03845

 Side 1  free  transition at x/c =  0.2986   59
 Side 2 forced transition at x/c =  1.0001   64

   4   rms: 0.8958E-03   max: -.3688E-02   D at   77  2
       a = 14.000      CL =  2.2182
      Cm = -0.1717     CD =  0.04392   =>   CDf =  0.00547    CDp =  0.03845

 Side 1  free  transition at x/c =  0.2986   59
 Side 2 forced transition at x/c =  1.0001   64

   5   rms: 0.3714E-04   max: -.2318E-03   D at   76  2
       a = 14.000      CL =  2.2182
      Cm = -0.1717     CD =  0.04392   =>   CDf =  0.00547    CDp =  0.03845

 Point added to stored polar  1
 Point written to save file  000233M0.1.log                                  
 Dump file unspecified or not available
 Calculating wake trajectory ...
 Calculating source influence matrix ...

 Solving BL system ...

 Side 1  free  transition at x/c =  0.2985   59
 Side 2 forced transition at x/c =  1.0001   64

   1   rms: 0.1257E+00   max: -.4559E+00   D at   60  1   RLX: 0.629
       a = 15.000      CL =  2.2234
      Cm = -0.1673     CD =  0.04951   =>   CDf =  0.00504    CDp =  0.04447

 Side 1  free  transition at x/c =  0.2850   59
 Side 2 forced transition at x/c =  1.0001   63

   2   rms: 0.5788E-01   max: -.3082E+00   D at   59  1
       a = 15.000      CL =  2.2066
      Cm = -0.1652     CD =  Got result {'DD': 0.01654, 'Dmin': 0.01668, 'LL': -1.315}
Completed successfully in 2.21 seconds. [{'DD': 0.01654, 'Dmin': 0.01668, 'LL': -1.315}]
0.05548   =>   CDf =  0.00528    CDp =  0.05020

 Side 1  free  transition at x/c =  0.2753   58
 Side 2 forced transition at x/c =  1.0001   63

   3   rms: 0.8784E-02   max: -.7976E-01   C at   58  1
       a = 15.000      CL =  2.2066
      Cm = -0.1652     CD =  0.05520   =>   CDf =  0.00516    CDp =  0.05004

 Side 1  free  transition at x/c =  0.2755   58
 Side 2 forced transition at x/c =  1.0001   63

   4   rms: 0.1800E-02   max: -.9567E-02   D at   82  1
       a = 15.000      CL =  2.2081
      Cm = -0.1652     CD =  0.05509   =>   CDf =  0.00509    CDp =  0.05000

 Side 1  free  transition at x/c =  0.2753   58
 Side 2 forced transition at x/c =  1.0001   63

   5   rms: 0.1061E-03   max: -.7339E-03   D at   77  2
       a = 15.000      CL =  2.2082
      Cm = -0.1653     CD =  0.05510   =>   CDf =  0.00509    CDp =  0.05001

 Side 1  free  transition at x/c =  0.2753   58
 Side 2 forced transition at x/c =  1.0001   63

   6   rms: 0.5163E-05   max: 0.3676E-04   C at   63  2
       a = 15.000      CL =  2.2082
      Cm = -0.1653     CD =  0.05510   =>   CDf =  0.00509    CDp =  0.05001

 Point added to stored polar  1
 Point written to save file  000233M0.1.log                                  
 Dump file unspecified or not available

.OPERva   c>  
 XFOIL   c>  
