Job launching after 0.32 seconds in submission.
Running python job.
Changed into dir /home/simonx/Documents/Udacity/Projects/capstone/PESM_NSGA2_CST_XFoil
Importing evaluationFunctionXFoil.py
Running evaluationFunctionXFoil.main()
0
1
2
0.04
resp: 
 ===================================================
  XFOIL Version 6.97
  Copyright (C) 2000   Mark Drela, Harold Youngren

  This software comes with ABSOLUTELY NO WARRANTY,
    subject to the GNU General Public License.

  Caveat computor
 ===================================================

 File  xfoil.def  not found

   QUIT    Exit program

  .OPER    Direct operating point(s)
  .MDES    Complex mapping design routine
  .QDES    Surface speed design routine
  .GDES    Geometry design routine

   SAVE f  Write airfoil to labeled coordinate file
   PSAV f  Write airfoil to plain coordinate file
   ISAV f  Write airfoil to ISES coordinate file
   MSAV f  Write airfoil to MSES coordinate file
   REVE    Reverse written-airfoil node ordering
   DELI i  Change written-airfoil file delimiters

   LOAD f  Read buffer airfoil from coordinate file
   NACA i  Set NACA 4,5-digit airfoil and buffer airfoil
   INTE    Set buffer airfoil by interpolating two airfoils
   NORM    Buffer airfoil normalization toggle
   HALF    Halve the number of points in buffer airfoil
   XYCM rr Change CM reference location, currently  0.25000 0.00000

   BEND    Display structural properties of current airfoil

   PCOP    Set current-airfoil panel nodes directly from buffer airfoil points
   PANE    Set current-airfoil panel nodes ( 160 ) based on curvature
  .PPAR    Show/change paneling

  .PLOP    Plotting options

   WDEF f  Write  current-settings file
   RDEF f  Reread current-settings file
   NAME s  Specify new airfoil name
   NINC    Increment name version number

   Z       Zoom    | (available in all menus)
   U       Unzoom  | 

 XFOIL   c>   ...............................................

  G raphics-enable flag:        T
  S ize of plot object          10.00"
  A spect ratio of plot object   0.5500
  P age dimensions              11.00 x  8.50"
  M argins from page edges       0.00",  0.00"
  F ont size (relative)          0.0150
  W indow/screen size fraction   0.8000
  B lowup input method:        Cursor    
  O rientation of plot:        Landscape 
  C olor PostScript output?     F

      Option, Value   (or <Return>)    c>   ...............................................

  G raphics-enable flag:        F
  S ize of plot object          10.00"
  A spect ratio of plot object   0.5500
  P age dimensions              11.00 x  8.50"
  M argins from page edges       0.00",  0.00"
  F ont size (relative)          0.0150
  W indow/screen size fraction   0.8000
  B lowup input method:        Cursor    
  O rientation of plot:        Landscape 
  C olor PostScript output?     F

      Option, Value   (or <Return>)    c>  
 XFOIL   c>  
 Labeled airfoil file.  Name:  000288                                          

 Number of input coordinate points: 200
 Clockwise ordering
 Max thickness =     0.129270  at x =   0.158
 Max camber    =     0.137495  at x =   0.469

  LE  x,y  =  -0.00005   0.00157  |   Chord =   0.99992
  TE  x,y  =   0.99988   0.00006  |

 Current airfoil nodes set from buffer airfoil nodes ( 200 )

 XFOIL   c>  
 You are working with the buffer airfoil

.GDES   c>  
  i       x        y      angle
   2   0.9990   0.0005    0.014
   3   0.9978   0.0011    0.032
   4   0.9961   0.0019    0.029
   5   0.9938   0.0030    0.053
   6   0.9911   0.0043    0.059
   7   0.9880   0.0059    0.070
   8   0.9843   0.0077    0.093
   9   0.9801   0.0097    0.090
  10   0.9755   0.0119    0.097
  11   0.9704   0.0143    0.111
  12   0.9649   0.0170    0.130
  13   0.9589   0.0198    0.125
  14   0.9524   0.0229    0.156
  15   0.9455   0.0261    0.162
  16   0.9382   0.0295    0.162
  17   0.9304   0.0331    0.189
  18   0.9222   0.0368    0.196
  19   0.9135   0.0407    0.210
  20   0.9045   0.0448    0.225
  21   0.8951   0.0490    0.237
  22   0.8853   0.0533    0.249
  23   0.8751   0.0577    0.274
  24   0.8645   0.0622    0.278
  25   0.8536   0.0669    0.302
  26   0.8423   0.0715    0.312
  27   0.8307   0.0763    0.336
  28   0.8187   0.0811    0.353
  29   0.8065   0.0860    0.367
  30   0.7939   0.0908    0.391
  31   0.7810   0.0957    0.408
  32   0.7679   0.1006    0.429
  33   0.7545   0.1055    0.453
  34   0.7409   0.1103    0.476
  35   0.7270   0.1151    0.492
  36   0.7129   0.1199    0.519
  37   0.6986   0.1245    0.544
  38   0.6841   0.1291    0.570
  39   0.6694   0.1336    0.592
  40   0.6545   0.1379    0.618
  41   0.6395   0.1422    0.647
  42   0.6243   0.1463    0.670
  43   0.6091   0.1502    0.700
  44   0.5937   0.1539    0.732
  45   0.5782   0.1575    0.749
  46   0.5627   0.1609    0.786
  47   0.5471   0.1640    0.812
  48   0.5314   0.1670    0.838
  49   0.5157   0.1697    0.869
  50   0.5000   0.1722    0.896
  51   0.4843   0.1744    0.922
  52   0.4686   0.1763    0.954
  53   0.4529   0.1780    0.978
  54   0.4373   0.1794    1.008
  55   0.4218   0.1806    1.027
  56   0.4063   0.1814    1.059
  57   0.3909   0.1820    1.080
  58   0.3757   0.1822    1.104
  59   0.3605   0.1822    1.127
  60   0.3455   0.1819    1.152
  61   0.3306   0.1813    1.170
  62   0.3159   0.1804    1.191
  63   0.3014   0.1792    1.211
  64   0.2871   0.1777    1.231
  65   0.2730   0.1759    1.248
  66   0.2591   0.1738    1.275
  67   0.2455   0.1715    1.284
  68   0.2321   0.1689    1.310
  69   0.2190   0.1660    1.324
  70   0.2061   0.1629    1.350
  71   0.1935   0.1596    1.369
  72   0.1813   0.1560    1.399
  73   0.1693   0.1522    1.412
  74   0.1577   0.1481    1.459
  75   0.1464   0.1439    1.477
  76   0.1355   0.1394    1.517
  77   0.1249   0.1348    1.566
  78   0.1147   0.1300    1.606
  79   0.1049   0.1251    1.666
  80   0.0955   0.1200    1.720
  81   0.0865   0.1147    1.794
  82   0.0778   0.1093    1.871
  83   0.0696   0.1038    1.964
  84   0.0618   0.0982    2.055
  85   0.0545   0.0925    2.172
  86   0.0476   0.0867    2.305
  87   0.0411   0.0808    2.436
  88   0.0351   0.0749    2.588
  89   0.0296   0.0688    2.755
  90   0.0245   0.0627    2.934
  91   0.0199   0.0566    3.125
  92   0.0157   0.0504    3.335
  93   0.0120   0.0442    3.510
  94   0.0089   0.0379    3.741
  95   0.0062   0.0317    3.914
  96   0.0039   0.0254    4.089
  97   0.0022   0.0190    4.249
  98   0.0010   0.0127    4.349
  99   0.0002   0.0063    4.424
 100   0.0000   0.0000   10.494
 101   0.0002  -0.0017   15.619
 102   0.0010  -0.0034   13.538
 103   0.0022  -0.0050   11.156
 104   0.0039  -0.0065    9.046
 105   0.0062  -0.0079    7.374
 106   0.0089  -0.0092    6.145
 107   0.0120  -0.0103    5.150
 108   0.0157  -0.0111    4.429
 109   0.0199  -0.0118    3.822
 110   0.0245  -0.0123    3.360
 111   0.0296  -0.0125    2.950
 112   0.0351  -0.0124    2.609
 113   0.0411  -0.0120    2.339
 114   0.0476  -0.0113    2.055
 115   0.0545  -0.0104    1.845
 116   0.0618  -0.0091    1.638
 117   0.0696  -0.0076    1.440
 118   0.0778  -0.0057    1.278
 119   0.0865  -0.0036    1.104
 120   0.0955  -0.0011    0.970
 121   0.1049   0.0016    0.820
 122   0.1147   0.0046    0.697
 123   0.1249   0.0079    0.559
 124   0.1355   0.0113    0.452
 125   0.1464   0.0150    0.339
 126   0.1577   0.0189    0.230
 127   0.1693   0.0230    0.125
 128   0.1813   0.0272    0.032
 129   0.1935   0.0315   -0.064
 130   0.2061   0.0359   -0.154
 131   0.2190   0.0404   -0.244
 132   0.2321   0.0449   -0.323
 133   0.2455   0.0494   -0.404
 134   0.2591   0.0538   -0.483
 135   0.2730   0.0583   -0.548
 136   0.2871   0.0626   -0.624
 137   0.3014   0.0669   -0.689
 138   0.3159   0.0710   -0.748
 139   0.3306   0.0750   -0.809
 140   0.3455   0.0788   -0.861
 141   0.3605   0.0824   -0.909
 142   0.3757   0.0857   -0.955
 143   0.3909   0.0889   -0.994
 144   0.4063   0.0917   -1.035
 145   0.4218   0.0943   -1.056
 146   0.4373   0.0967   -1.089
 147   0.4529   0.0987   -1.107
 148   0.4686   0.1004   -1.119
 149   0.4843   0.1018   -1.132
 150   0.5000   0.1029   -1.134
 151   0.5157   0.1037   -1.135
 152   0.5314   0.1042   -1.127
 153   0.5471   0.1044   -1.121
 154   0.5627   0.1043   -1.107
 155   0.5782   0.1038   -1.087
 156   0.5937   0.1031   -1.063
 157   0.6091   0.1021   -1.045
 158   0.6243   0.1008   -1.009
 159   0.6395   0.0993   -0.985
 160   0.6545   0.0975   -0.952
 161   0.6694   0.0955   -0.916
 162   0.6841   0.0933   -0.876
 163   0.6986   0.0908   -0.850
 164   0.7129   0.0882   -0.806
 165   0.7270   0.0854   -0.769
 166   0.7409   0.0825   -0.727
 167   0.7545   0.0794   -0.701
 168   0.7679   0.0763   -0.649
 169   0.7810   0.0730   -0.621
 170   0.7939   0.0696   -0.582
 171   0.8065   0.0662   -0.544
 172   0.8187   0.0627   -0.517
 173   0.8307   0.0593   -0.472
 174   0.8423   0.0558   -0.446
 175   0.8536   0.0523   -0.419
 176   0.8645   0.0488   -0.378
 177   0.8751   0.0454   -0.358
 178   0.8853   0.0420   -0.331
 179   0.8951   0.0387   -0.301
 180   0.9045   0.0354   -0.277
 181   0.9135   0.0323   -0.258
 182   0.9222   0.0292   -0.228
 183   0.9304   0.0263   -0.212
 184   0.9382   0.0234   -0.192
 185   0.9455   0.0207   -0.168
 186   0.9524   0.0182   -0.162
 187   0.9589   0.0158   -0.133
 188   0.9649   0.0135   -0.132
 189   0.9704   0.0114   -0.106
 190   0.9755   0.0095   -0.094
 191   0.9801   0.0077   -0.090
 192   0.9843   0.0061   -0.084
 193   0.9880   0.0047   -0.054
 194   0.9911   0.0034   -0.060
 195   0.9938   0.0024   -0.027
 196   0.9961   0.0015   -0.036
 197   0.9978   0.0009   -0.031
 198   0.9990   0.0004   -0.074
 199   0.9998   0.0001    0.161

 Maximum panel corner angle = 15.619   at  i,x,y  = 101   0.0002  -0.0017

 Enter corner angle criterion for refinement (deg):   7.810
 Enter type of spline parameter (1=uniform, 2=arclength):   1
 Enter refinement x limits:  -0.10000   1.10000
 Number of points added:           10
 Max thickness =     0.129188  at x =   0.158
 Max camber    =     0.138432  at x =   0.469

 Maximum panel corner angle = 13.951   at  i,x,y  = 103   0.0001  -0.0014

.GDES   c>  
 Buffer airfoil is not identical to current airfoil

 XFOIL   c>  
 Blunt trailing edge.  Gap =  0.00028

 Paneling parameters used...
   Number of panel nodes       160
   Panel bunching parameter    1.000
   TE/LE panel density ratio   0.150
   Refined-area/LE panel density ratio    0.200
   Top    side refined area x/c limits  1.000 1.000
   Bottom side refined area x/c limits  1.000 1.000

 XFOIL   c>  
Enter output filename   s>  
 XFOIL   c>  
.OPERi   c>   Current iteration limit:          20

Enter new iteration limit   i>  
Enter new iteration limit   i>  
Enter new iteration limit   i>  
.OPERi   c>  
 M  =    0.0000
 Re =  0.3000E+06

.OPERv   c>  
 Sonic Cp =   -420.65      Sonic Q/Qinf =    22.825


.OPERv   c>  
 Polar  1 newly created for accumulation
 Airfoil archived with polar: 000288                                          

Enter  polar save filename  OR  <return> for no file   s>  
 New polar save file available

Enter  polar dump filename  OR  <return> for no file   s>  
 Polar dump file will NOT be written

 Polar accumulation enabled

.OPERva   c>   Calculating unit vorticity distributions ...
 Calculating wake trajectory ...
 Calculating source influence matrix ...

 Solving BL system ...

 Initializing BL ...
    side            1  ...
 MRCHUE: Inverse mode at  52     Hk =   4.161
 MRCHUE: Inverse mode at  53     Hk =   4.939
 MRCHUE: Inverse mode at  54     Hk =   5.701
 MRCHUE: Inverse mode at  55     Hk =   6.450
 MRCHUE: Inverse mode at  56     Hk =   7.191
 MRCHUE: Inverse mode at  57     Hk =   7.925
 MRCHUE: Inverse mode at  58     Hk =   8.654
 MRCHUE: Inverse mode at  59     Hk =   8.138
 MRCHUE: Inverse mode at  60     Hk =   5.113
 MRCHUE: Inverse mode at  61     Hk =   3.409
 MRCHUE: Inverse mode at  85     Hk =   2.500
    side            2  ...
 MRCHUE: Inverse mode at  24     Hk =   3.934
 MRCHUE: Inverse mode at  25     Hk =   4.756
 MRCHUE: Inverse mode at  26     Hk =   5.599
 MRCHUE: Inverse mode at  27     Hk =   6.465
 MRCHUE: Inverse mode at  28     Hk =   7.352
 MRCHUE: Inverse mode at  29     Hk =   8.251
 MRCHUE: Inverse mode at  30     Hk =   9.147
 MRCHUE: Inverse mode at  31     Hk =   9.700
 MRCHUE: Inverse mode at  32     Hk =   5.615
 MRCHUE: Inverse mode at  33     Hk =   3.886
 MRCHUE: Inverse mode at  34     Hk =   2.742
 MRCHUE: Inverse mode at  35     Hk =   2.500
 MRCHUE: Inverse mode at  79     Hk =   2.285

 Side 1  free  transition at x/c =  0.5534   59
 Side 2  free  transition at x/c =  0.2122   31

   1   rms: 0.1318E+01   max: 0.1014E+02   T at   31  2   RLX: 0.074
       a =  2.000      CL =  1.8753
      Cm = -0.3452     CD =  0.02155   =>   CDf =  0.00791    CDp =  0.01365

 Side 1  free  transition at x/c =  0.5549   59
 Side 2  free  transition at x/c =  0.1980   31

   2   rms: 0.3063E+00   max: -.1142E+01   D at   42  2   RLX: 0.438
       a =  2.000      CL =  1.8305
      Cm = -0.3362     CD =  0.02085   =>   CDf =  0.00757    CDp =  0.01328

 MRCHDU: Convergence failed at  61  side 1    Res =  0.1845E+01
 Side 1  free  transition at x/c =  0.5674   60
 Side 2  free  transition at x/c =  0.1987   31

   3   rms: 0.2106E+00   max: -.8739E+00   D at   40  2   RLX: 0.572
       a =  2.000      CL =  1.7943
      Cm = -0.3298     CD =  0.01654   =>   CDf =  0.00737    CDp =  0.00917

 Side 1  free  transition at x/c =  0.5741   59
 Side 2  free  transition at x/c =  0.1965   32

   4   rms: 0.9572E-01   max: 0.5741E+00   D at    2  2
       a =  2.000      CL =  1.7458
      Cm = -0.3186     CD =  0.01801   =>   CDf =  0.00747    CDp =  0.01054

 MRCHDU: Convergence failed at  32  side 2    Res =  0.5367E+01
 MRCHDU: Convergence failed at  33  side 2    Res =  0.1565E+02
 MRCHDU: Convergence failed at  34  side 2    Res =  0.1750E+02
 MRCHDU: Convergence failed at  35  side 2    Res =  0.2368E+02
 MRCHDU: Convergence failed at  36  side 2    Res =  0.5000E+02
 MRCHDU: Convergence failed at  37  side 2    Res =  0.5083E+02
 MRCHDU: Convergence failed at  38  side 2    Res =  0.4443E+02
 MRCHDU: Convergence failed at  39  side 2    Res =  0.5096E+02
 MRCHDU: Convergence failed at  40  side 2    Res =  0.7822E+02
 MRCHDU: Convergence failed at  41  side 2    Res =  0.5292E+02
 MRCHDU: Convergence failed at  42  side 2    Res =  0.5160E+02
 MRCHDU: Convergence failed at  43  side 2    Res =  0.6079E+02
 MRCHDU: Convergence failed at  44  side 2    Res =  0.8948E+02
 MRCHDU: Convergence failed at  45  side 2    Res =  0.2523E+03
 MRCHDU: Convergence failed at  46  side 2    Res =  0.5756E+02
 MRCHDU: Convergence failed at  47  side 2    Res =  0.3181E+02
 MRCHDU: Convergence failed at  48  side 2    Res =  0.5270E+02
 MRCHDU: Convergence failed at  49  side 2    Res =  0.4522E+02
 MRCHDU: Convergence failed at  50  side 2    Res =  0.4166E+02
 MRCHDU: Convergence failed at  51  side 2    Res =  0.4090E+02
 MRCHDU: Convergence failed at  52  side 2    Res =  0.4237E+02
 MRCHDU: Convergence failed at  53  side 2    Res =  0.4665E+02
 MRCHDU: Convergence failed at  54  side 2    Res =  0.5517E+02
 MRCHDU: Convergence failed at  55  side 2    Res =  0.3388E+02
 MRCHDU: Convergence failed at  56  side 2    Res =  0.2216E+03
 MRCHDU: Convergence failed at  57  side 2    Res =  0.2064E+03
 MRCHDU: Convergence failed at  58  side 2    Res =  0.7239E+02
 MRCHDU: Convergence failed at  59  side 2    Res =  0.4408E+02
 MRCHDU: Convergence failed at  60  side 2    Res =  0.3167E+02
 MRCHDU: Convergence failed at  61  side 2    Res =  0.1061E+04
 MRCHDU: Convergence failed at  62  side 2    Res =  0.3555E+03
 MRCHDU: Convergence failed at  63  side 2    Res =  0.1790E+03
 MRCHDU: Convergence failed at  64  side 2    Res =  0.2665E+04
 MRCHDU: Convergence failed at  65  side 2    Res =  0.2028E+03
 MRCHDU: Convergence failed at  66  side 2    Res =  0.1031E+03
 MRCHDU: Convergence failed at  67  side 2    Res =  0.6971E+02
 MRCHDU: Convergence failed at  68  side 2    Res =  0.4542E+02
 MRCHDU: Convergence failed at  69  side 2    Res =  0.4702E+02
 MRCHDU: Convergence failed at  70  side 2    Res =  0.4150E+02
 MRCHDU: Convergence failed at  71  side 2    Res =  0.4413E+02
 MRCHDU: Convergence failed at  72  side 2    Res =  0.4371E+02
 MRCHDU: Convergence failed at  73  side 2    Res =  0.4353E+02
 MRCHDU: Convergence failed at  74  side 2    Res =  0.4324E+02
 Side 1  free  transition at x/c =  0.5819   60
 Side 2  free  transition at x/c =  0.1913   31

   5   rms: 0.7613E+00   max: 0.5326E+01   T at   31  2   RLX: 0.192
       a =  2.000      CL =  1.5370
      Cm = -0.2568     CD =  0.01684   =>   CDf =  0.00581    CDp =  0.01102

 MRCHDU: Convergence failed at  59  side 2    Res =  0.2809E+00
 MRCHDU: Convergence failed at  60  side 2    Res =  0.2953E+00
 MRCHDU: Convergence failed at  61  side 2    Res =  0.3094E+00
 MRCHDU: Convergence failed at  62  side 2    Res =  0.3234E+00
 MRCHDU: Convergence failed at  63  side 2    Res =  0.3371E+00
 MRCHDU: Convergence failed at  64  side 2    Res =  0.3504E+00
 MRCHDU: Convergence failed at  65  side 2    Res =  0.3635E+00
 MRCHDU: Convergence failed at  66  side 2    Res =  0.3766E+00
 MRCHDU: Convergence failed at  67  side 2    Res =  0.3896E+00
 MRCHDU: Convergence failed at  68  side 2    Res =  0.4026E+00
 MRCHDU: Convergence failed at  69  side 2    Res =  0.4159E+00
 MRCHDU: Convergence failed at  70  side 2    Res =  0.4282E+00
 MRCHDU: Convergence failed at  71  side 2    Res =  0.4404E+00
 MRCHDU: Convergence failed at  72  side 2    Res =  0.4521E+00
 MRCHDU: Convergence failed at  73  side 2    Res =  0.4635E+00
 MRCHDU: Convergence failed at  74  side 2    Res =  0.4747E+00
 MRCHDU: Convergence failed at  75  side 2    Res =  0.5542E+00
 MRCHDU: Convergence failed at  76  side 2    Res =  0.6580E+00
 MRCHDU: Convergence failed at  77  side 2    Res =  0.8404E+00
 MRCHDU: Convergence failed at  78  side 2    Res =  0.1339E+01
 Side 1  free  transition at x/c =  0.5819   60
 Side 2  free  transition at x/c =  0.1755   30

   6   rms: 0.2049E+01   max: 0.2707E+02   T at   30  2   RLX: 0.032
       a =  2.000      CL =  1.6722
      Cm = -0.3075     CD =  0.05593   =>   CDf =  0.00566    CDp =  0.05027

 Side 1  free  transition at x/c =  0.5818   60
 Side 2  free  transition at x/c =  0.1658   30

   7   rms: 0.1146E+01   max: 0.4886E+01   T at   30  2   RLX: 0.164
       a =  2.000      CL =  1.5040
      Cm = -0.2864     CD =  0.05108   =>   CDf =  0.00576    CDp =  0.04533

 Side 1  free  transition at x/c =  0.5829   59
 Side 2  free  transition at x/c =  0.1559   30

   8   rms: 0.1024E+01   max: 0.8652E+01   T at   30  2   RLX: 0.107
       a =  2.000      CL =  1.3778
      Cm = -0.2637     CD =  0.04999   =>   CDf =  0.00545    CDp =  0.04455

 Side 1  free  transition at x/c =  0.5833   58
 Side 2  free  transition at x/c =  0.1430   30

   9   rms: 0.9259E+01   max: 0.4134E+02   D at   32  2   RLX: 0.013
       a =  2.000      CL =  1.4510
      Cm = -0.2670     CD =  0.05838   =>   CDf =  0.00500    CDp =  0.05338

 Side 1  free  transition at x/c =  0.5830   59
 Side 2  free  transition at x/c =  0.1405   29

  10   rms: 0.6950E+00   max: 0.8072E+01   T at   29  2   RLX: 0.161
       a =  2.000      CL =  1.3561
      Cm = -0.2444     CD =  0.05390   =>   CDf =  0.00534    CDp =  0.04856

 Side 1  free  transition at x/c =  0.5830   58
 Side 2  free  transition at x/c =  0.1318   30

  11   rms: 0.1328E+02   max: 0.1108E+03   T at   30  2   RLX: 0.011
       a =  2.000      CL =  1.2589
      Cm = -0.2347     CD =  0.05485   =>   CDf =  0.00500    CDp =  0.04985

 MRCHDU: Convergence failed at  30  side 2    Res =  0.1704E+02
 Side 1  free  transition at x/c =  0.5835   58
 Side 2  free  transition at x/c =  0.1286   29

  12   rms: 0.1386E+01   max: 0.1929E+02   T at   29  2   RLX: 0.035
       a =  2.000      CL =  1.1734
      Cm = -0.2161     CD =  0.05437   =>   CDf =  0.00497    CDp =  0.04940

 Side 1  free  transition at x/c =  0.5833   57
 Side 2  free  transition at x/c =  0.1242   30

  13   rms: 0.1226E+01   max: 0.9412E+01   T at   30  2   RLX: 0.121
       a =  2.000      CL =  1.0232
      Cm = -0.1933     CD =  0.04602   =>   CDf =  0.00490    CDp =  0.04112

 Side 1  free  transition at x/c =  0.5832   56
 Side 2  free  transition at x/c =  0.1116   30

  14   rms: 0.9389E+00   max: 0.1076E+02   T at   30  2   RLX: 0.102
       a =  2.000      CL =  0.9042
      Cm = -0.1713     CD =  0.04461   =>   CDf =  0.00454    CDp =  0.04007

 Side 1  free  transition at x/c =  0.5829   56
 Side 2  free  transition at x/c =  0.1023   29

  15   rms: 0.1794E+01   max: 0.1177E+02   T at   29  2   RLX: 0.055
       a =  2.000      CL =  0.9221
      Cm = -0.1631     CD =  0.04950   =>   CDf =  0.00439    CDp =  0.04511

 Side 1  free  transition at x/c =  0.5831   56
 Side 2  free  transition at x/c =  0.1000   29

  16   rms: 0.5365E+00   max: 0.6659E+01   T at   29  2   RLX: 0.221
       a =  2.000      CL =  0.8237
      Cm = -0.1454     CD =  0.04684   =>   CDf =  0.00440    CDp =  0.04244

 Side 1  free  transition at x/c =  0.5825   56
 Side 2  free  transition at x/c =  0.0911   28

  17   rms: 0.9284E+00   max: 0.1553E+02   T at   28  2   RLX: 0.065
       a =  2.000      CL =  0.7692
      Cm = -0.1322     CD =  0.04781   =>   CDf =  0.00428    CDp =  0.04353

 Side 1  free  transition at x/c =  0.5825   55
 Side 2  free  transition at x/c =  0.0878   29

  18   rms: 0.4065E+00   max: 0.3756E+01   T at   29  2   RLX: 0.333
       a =  2.000      CL =  0.6844
      Cm = -0.1189     CD =  0.04396   =>   CDf =  0.00415    CDp =  0.03981

 Side 1  free  transition at x/c =  0.5821   55
 Side 2  free  transition at x/c =  0.0807   28

  19   rms: 0.2778E+00   max: 0.3615E+01   T at   28  2   RLX: 0.331
       a =  2.000      CL =  0.6544
      Cm = -0.1134     CD =  0.04165   =>   CDf =  0.00398    CDp =  0.03767

 Side 1  free  transition at x/c =  0.5821   55
 Side 2  free  transition at x/c =  0.0767   28

  20   rms: 0.3734E+00   max: 0.2100E+01   T at   28  2   RLX: 0.278
       a =  2.000      CL =  0.6991
      Cm = -0.1257     CD =  0.03661   =>   CDf =  0.00395    CDp =  0.03265

 Side 1  free  transition at x/c =  0.5825   55
 Side 2  free  transition at x/c =  0.0760   28

  21   rms: 0.9930E+00   max: -.5355E+01   T at   28  2   RLX: 0.093
       a =  2.000      CL =  0.7614
      Cm = -0.1314     CD =  0.03761   =>   CDf =  0.00418    CDp =  0.03344

 Side 1  free  transition at x/c =  0.5828   55
 Side 2  free  transition at x/c =  0.0822   28

  22   rms: 0.4361E+00   max: -.1626E+01   D at   83  2   RLX: 0.307
       a =  2.000      CL =  0.9276
      Cm = -0.1619     CD =  0.03041   =>   CDf =  0.00411    CDp =  0.02630

 Side 1  free  transition at x/c =  0.5839   56
 Side 2  free  transition at x/c =  0.0917   28

  23   rms: 0.6613E+00   max: -.2187E+01   D at   20  2   RLX: 0.229
       a =  2.000      CL =  1.0506
      Cm = -0.1911     CD =  0.02760   =>   CDf =  0.00449    CDp =  0.02311

 Side 1  free  transition at x/c =  0.5843   56
 Side 2  free  transition at x/c =  0.1031   29

  24   rms: 0.1005E+01   max: 0.5315E+01   D at   29  2   RLX: 0.244
       a =  2.000      CL =  1.0814
      Cm = -0.1873     CD =  0.03254   =>   CDf =  0.00487    CDp =  0.02767

 Side 1  free  transition at x/c =  0.5838   57
 Side 2  free  transition at x/c =  0.1137   29

  25   rms: 0.3741E+00   max: 0.1942E+01   T at   29  2   RLX: 0.278
       a =  2.000      CL =  1.2365
      Cm = -0.2144     CD =  0.02816   =>   CDf =  0.00467    CDp =  0.02349
 VISCAL:  Convergence failed
 Calculating wake trajectory ...
 Calculating source influence matrix ...

 Solving BL system ...

 Side 1  free  transition at x/c =  0.5836   58
 Side 2  free  transition at x/c =  0.1137   28

   1   rms: 0.5127E+00   max: -.1669E+01   D at   20  2   RLX: 0.300
       a =  3.000      CL =  1.3951
      Cm = -0.2418     CD =  0.02614   =>   CDf =  0.00488    CDp =  0.02126

 Side 1  free  transition at x/c =  0.5775   59
 Side 2  free  transition at x/c =  0.1230   28

   2   rms: 0.4663E+00   max: -.2998E+01   T at   28  2   RLX: 0.167
       a =  3.000      CL =  1.4708
      Cm = -0.2556     CD =  0.02618   =>   CDf =  0.00549    CDp =  0.02070

 Side 1  free  transition at x/c =  0.5755   59
 Side 2  free  transition at x/c =  0.1279   28

   3   rms: 0.1340E+01   max: -.8226E+01   T at   28  2   RLX: 0.061
       a =  3.000      CL =  1.5346
      Cm = -0.2680     CD =  0.02370   =>   CDf =  0.00561    CDp =  0.01809

 Side 1  free  transition at x/c =  0.5748   59
 Side 2  free  transition at x/c =  0.1380   28

   4   rms: 0.1651E+01   max: -.1095E+02   T at   28  2   RLX: 0.046
       a =  3.000      CL =  1.5751
      Cm = -0.2762     CD =  0.02118   =>   CDf =  0.00611    CDp =  0.01507

 Side 1  free  transition at x/c =  0.5742   59
 Side 2  free  transition at x/c =  0.1544   29

   5   rms: 0.2851E+01   max: 0.1799E+02   T at   29  2   RLX: 0.065
       a =  3.000      CL =  1.5728
      Cm = -0.2736     CD =  0.02053   =>   CDf =  0.00656    CDp =  0.01397

 MRCHDU: Convergence failed at  29  side 2    Res =  0.9629E+01
 Side 1  free  transition at x/c =  0.5734   59
 Side 2  free  transition at x/c =  0.1390   28

   6   rms: 0.4311E+01   max: -.2271E+02   T at   28  2   RLX: 0.022
       a =  3.000      CL =  1.5992
      Cm = -0.2800     CD =  0.02067   =>   CDf =  0.00610    CDp =  0.01456

 Side 1  free  transition at x/c =  0.5730   59
 Side 2  free  transition at x/c =  0.1568   29

   7   rms: 0.2693E+01   max: 0.1960E+02   T at   29  2   RLX: 0.053
       a =  3.000      CL =  1.5890
      Cm = -0.2760     CD =  0.02105   =>   CDf =  0.00646    CDp =  0.01459

 Side 1  free  transition at x/c =  0.5724   59
 Side 2  free  transition at x/c =  0.1424   28

   8   rms: 0.1343E+02   max: -.1002E+03   T at   28  2   RLX: 0.005
       a =  3.000      CL =  1.6167
      Cm = -0.2808     CD =  0.02110   =>   CDf =  0.00615    CDp =  0.01495

 MRCHDU: Convergence failed at  29  side 2    Res =  0.3537E+01
 MRCHDU: Convergence failed at  30  side 2    Res =  0.4521E+01
 MRCHDU: Convergence failed at  31  side 2    Res =  0.4354E+01
 MRCHDU: Convergence failed at  32  side 2    Res =  0.8882E+01
 MRCHDU: Convergence failed at  33  side 2    Res =  0.1097E+02
 MRCHDU: Convergence failed at  34  side 2    Res =  0.1077E+02
 MRCHDU: Convergence failed at  35  side 2    Res =  0.9582E+01
 MRCHDU: Convergence failed at  36  side 2    Res =  0.7957E+01
 MRCHDU: Convergence failed at  37  side 2    Res =  0.6692E+01
 MRCHDU: Convergence failed at  38  side 2    Res =  0.1027E+02
 MRCHDU: Convergence failed at  39  side 2    Res =  0.1434E+02
 MRCHDU: Convergence failed at  40  side 2    Res =  0.2410E+02
 MRCHDU: Convergence failed at  41  side 2    Res =  0.9827E+02
 MRCHDU: Convergence failed at  42  side 2    Res =  0.3946E+02
 MRCHDU: Convergence failed at  43  side 2    Res =  0.1697E+02
 MRCHDU: Convergence failed at  44  side 2    Res =  0.9657E+01
 MRCHDU: Convergence failed at  45  side 2    Res =  0.6754E+01
 MRCHDU: Convergence failed at  46  side 2    Res =  0.1808E+02
 MRCHDU: Convergence failed at  47  side 2    Res =  0.5507E+01
 MRCHDU: Convergence failed at  48  side 2    Res =  0.5979E+01
 MRCHDU: Convergence failed at  49  side 2    Res =  0.5882E+01
 MRCHDU: Convergence failed at  50  side 2    Res =  0.1018E+02
 MRCHDU: Convergence failed at  51  side 2    Res =  0.1155E+02
 MRCHDU: Convergence failed at  52  side 2    Res =  0.1325E+02
 MRCHDU: Convergence failed at  53  side 2    Res =  0.1583E+02
 MRCHDU: Convergence failed at  54  side 2    Res =  0.2037E+02
 MRCHDU: Convergence failed at  55  side 2    Res =  0.3790E+02
 MRCHDU: Convergence failed at  56  side 2    Res =  0.1341E+04
 MRCHDU: Convergence failed at  57  side 2    Res =  0.3899E+02
 MRCHDU: Convergence failed at  58  side 2    Res =  0.1097E+02
 MRCHDU: Convergence failed at  59  side 2    Res =  0.1128E+02
 MRCHDU: Convergence failed at  60  side 2    Res =  0.1261E+02
 MRCHDU: Convergence failed at  61  side 2    Res =  0.1107E+02
 MRCHDU: Convergence failed at  62  side 2    Res =  0.1154E+02
 MRCHDU: Convergence failed at  63  side 2    Res =  0.1162E+02
 MRCHDU: Convergence failed at  64  side 2    Res =  0.1078E+02
 MRCHDU: Convergence failed at  65  side 2    Res =  0.9952E+01
 MRCHDU: Convergence failed at  66  side 2    Res =  0.1002E+02
 MRCHDU: Convergence failed at  67  side 2    Res =  0.9380E+01
 MRCHDU: Convergence failed at  68  side 2    Res =  0.8719E+01
 MRCHDU: Convergence failed at  69  side 2    Res =  0.8165E+01
 MRCHDU: Convergence failed at  70  side 2    Res =  0.7881E+01
 MRCHDU: Convergence failed at  71  side 2    Res =  0.7670E+01
 MRCHDU: Convergence failed at  72  side 2    Res =  0.8097E+01
 MRCHDU: Convergence failed at  73  side 2    Res =  0.1049E+02
 MRCHDU: Convergence failed at  74  side 2    Res =  0.3937E+02
 MRCHDU: Convergence failed at  75  side 2    Res =  0.1101E+02
 Side 1  free  transition at x/c =  0.5723   59
 Side 2  free  transition at x/c =  0.1529   29

   9   rms: 0.5709E+00   max: -.2844E+01   D at   76  2   RLX: 0.176
       a =  3.000      CL =  1.4806
      Cm = -0.2316     CD =  0.01639   =>   CDf =  0.00542    CDp =  0.01097

 Side 1  free  transition at x/c =  0.5697   59
 Side 2  free  transition at x/c =  0.1681   30

  10   rms: 0.3962E+00   max: -.2677E+01   T at   30  2   RLX: 0.187
       a =  3.000      CL =  1.6123
      Cm = -0.2648     CD =  0.02163   =>   CDf =  0.00634    CDp =  0.01529

 MRCHDU: Convergence failed at  45  side 2    Res =  0.1765E-01
 Side 1  free  transition at x/c =  0.5680   60
 Side 2  free  transition at x/c =  0.1833   30

  11   rms: 0.4685E+00   max: -.4513E+01   D at    2  1   RLX: 0.111
       a =  3.000      CL =  1.6480
      Cm = -0.2737     CD =  0.02039   =>   CDf =  0.00677    CDp =  0.01362

 MRCHDU: Convergence failed at  45  side 2    Res =  0.5992E-01
 Side 1  free  transition at x/c =  0.5672   60
 Side 2  free  transition at x/c =  0.1921   30

  12   rms: 0.5165E+00   max: -.4045E+01   T at   30  2   RLX: 0.124
       a =  3.000      CL =  1.6768
      Cm = -0.2801     CD =  0.02013   =>   CDf =  0.00681    CDp =  0.01331

 MRCHDU: Convergence failed at  32  side 2    Res =  0.2023E+01
 MRCHDU: Convergence failed at  45  side 2    Res =  0.1849E+00
 MRCHDU: Convergence failed at  46  side 2    Res =  0.3798E+00
 MRCHDU: Convergence failed at  68  side 2    Res =  0.2220E-01
 Side 1  free  transition at x/c =  0.5665   60
 Side 2  free  transition at x/c =  0.2068   31

  13   rms: 0.5836E+00   max: -.3466E+01   D at   40  2   RLX: 0.144
       a =  3.000      CL =  1.7138
      Cm = -0.2896     CD =  0.01809   =>   CDf =  0.00748    CDp =  0.01060

 MRCHDU: Convergence failed at  68  side 2    Res =  0.2842E-01
 Side 1  free  transition at x/c =  0.5657   60
 Side 2  free  transition at x/c =  0.2187   32

  14   rms: 0.3022E+00   max: 0.1432E+01   D at   33  2   RLX: 0.351
       a =  3.000      CL =  1.7700
      Cm = -0.3016     CD =  0.01804   =>   CDf =  0.00762    CDp =  0.01042

 Side 1  free  transition at x/c =  0.5640   60
 Side 2  free  transition at x/c =  0.2290   32

  15   rms: 0.3224E+00   max: -.2220E+01   D at   63  2   RLX: 0.225
       a =  3.000      CL =  1.7892
      Cm = -0.3055     CD =  0.01820   =>   CDf =  0.00753    CDp =  0.01067

 Side 1  free  transition at x/c =  0.5634   60
 Side 2  free  transition at x/c =  0.2275   32

  16   rms: 0.2499E+00   max: -.1752E+01   D at   65  2   RLX: 0.285
       a =  3.000      CL =  1.8060
      Cm = -0.3088     CD =  0.01832   =>   CDf =  0.00754    CDp =  0.01078

 MRCHDU: Convergence failed at  59  side 2    Res =  0.6797E+00
 Side 1  free  transition at x/c =  0.5628   60
 Side 2  free  transition at x/c =  0.2244   32

  17   rms: 0.1623E+00   max: -.1034E+01   D at   67  2   RLX: 0.484
       a =  3.000      CL =  1.8222
      Cm = -0.3116     CD =  0.01854   =>   CDf =  0.00760    CDp =  0.01094

 Side 1  free  transition at x/c =  0.5622   60
 Side 2  free  transition at x/c =  0.2192   32

  18   rms: 0.9418E-01   max: -.7164E+00   D at   67  2   RLX: 0.698
       a =  3.000      CL =  1.8368
      Cm = -0.3150     CD =  0.01872   =>   CDf =  0.00750    CDp =  0.01122

 Side 1  free  transition at x/c =  0.5617   60
 Side 2  free  transition at x/c =  0.2155   32

  19   rms: 0.3280E-01   max: -.3222E+00   D at   67  2
       a =  3.000      CL =  1.8422
      Cm = -0.3162     CD =  0.01880   =>   CDf =  0.00747    CDp =  0.01133

 Side 1  free  transition at x/c =  0.5615   60
 Side 2  free  transition at x/c =  0.2142   32

  20   rms: 0.1827E-02   max: -.2491E-01   D at   67  2
       a =  3.000      CL =  1.8418
      Cm = -0.3161     CD =  0.01880   =>   CDf =  0.00746    CDp =  0.01134

 Side 1  free  transition at x/c =  0.5615   60
 Side 2  free  transition at x/c =  0.2140   32

  21   rms: 0.2309E-04   max: 0.2548E-03   T at   32  2
       a =  3.000      CL =  1.8418
      Cm = -0.3161     CD =  0.01880   =>   CDf =  0.00746    CDp =  0.01134

 Point added to stored polar  1
 Point written to save file  000288M0.04.log                                 
 Dump file unspecified or not available
 Calculating wake trajectory ...
 Calculating source influence matrix ...

 Solving BL system ...

 Side 1  free  transition at x/c =  0.5615   60
 Side 2  free  transition at x/c =  0.2140   32

   1   rms: 0.2121E+00   max: -.1803E+01   T at   32  2   RLX: 0.277
       a =  4.000      CL =  1.8727
      Cm = -0.3164     CD =  0.01888   =>   CDf =  0.00723    CDp =  0.01165

 Side 1  free  transition at x/c =  0.5571   60
 Side 2  free  transition at x/c =  0.2237   31

   2   rms: 0.1269E+00   max: -.8634E+00   T at   31  2   RLX: 0.579
       a =  4.000      CL =  1.9067
      Cm = -0.3144     CD =  0.01964   =>   CDf =  0.00748    CDp =  0.01216

 Side 1  free  transition at x/c =  0.5479   60
 Side 2  free  transition at x/c =  0.2368   32

   3   rms: 0.5066E-01   max: 0.3002E+00   D at   32  2
       a =  4.000      CL =  1.9397
      Cm = -0.3144     CD =  0.01980   =>   CDf =  0.00746    CDp =  0.01234

 Side 1  free  transition at x/c =  0.5427   60
 Side 2  free  transition at x/c =  0.2437   32

   4   rms: 0.1229E-01   max: -.7556E-01   D at   32  2
       a =  4.000      CL =  1.9405
      Cm = -0.3145     CD =  0.01978   =>   CDf =  0.00748    CDp =  0.01230

 Side 1  free  transition at x/c =  0.5432   60
 Side 2  free  transition at x/c =  0.2448   32

   5   rms: 0.2499E-03   max: 0.2593E-02   D at   33  2
       a =  4.000      CL =  1.9407
      Cm = -0.3145     CD =  0.01978   =>   CDf =  0.00746    CDp =  0.01232

 Side 1  free  transition at x/c =  0.5432   60
 Side 2  free  transition at x/c =  0.2447   32

   6   rms: 0.2259E-05   max: 0.1003E-04   D at   60  1
       a =  4.000      CL =  1.9407
      Cm = -0.3145     CD =  0.01978   =>   CDf =  0.00747    CDp =  0.01232

 Point added to stored polar  1
 Point written to save file  000288M0.04.log                                 
 Dump file unspecified or not available
 Calculating wake trajectory ...
 Calculating source influence matrix ...

 Solving BL system ...

 Side 1  free  transition at x/c =  0.5432   60
 Side 2  free  transition at x/c =  0.2447   32

   1   rms: 0.1703E+00   max: -.1406E+01   T at   32  2   RLX: 0.356
       a =  5.000      CL =  1.9782
      Cm = -0.3144     CD =  0.02015   =>   CDf =  0.00721    CDp =  0.01294

 Side 1  free  transition at x/c =  0.5379   60
 Side 2  free  transition at x/c =  0.2604   32

   2   rms: 0.1005E+00   max: 0.6645E+00   D at   32  2
       a =  5.000      CL =  2.0232
      Cm = -0.3103     CD =  0.02116   =>   CDf =  0.00751    CDp =  0.01364

 Side 1  free  transition at x/c =  0.5223   60
 Side 2  free  transition at x/c =  0.2773   33

   3   rms: 0.3823E-01   max: 0.3074E+00   D at   33  2
       a =  5.000      CL =  2.0314
      Cm = -0.3116     CD =  0.02094   =>   CDf =  0.00758    CDp =  0.01336

 Side 1  free  transition at x/c =  0.5250   60
 Side 2  free  transition at x/c =  0.2776   33

   4   rms: 0.2435E-02   max: 0.1242E-01   D at   34  2
       a =  5.000      CL =  2.0334
      Cm = -0.3120     CD =  0.02099   =>   CDf =  0.00742    CDp =  0.01357

 Side 1  free  transition at x/c =  0.5248   60
 Side 2  free  transition at x/c =  0.2778   33

   5   rms: 0.2966E-04   max: -.1677E-03   D at   61  1
       a =  5.000      CL =  2.0334
      Cm = -0.3120     CD =  0.02099   =>   CDf =  0.00744    CDp =  0.01355

 Point added to stored polar  1
 Point written to save file  000288M0.04.log                                 
 Dump file unspecified or not available
 Calculating wake trajectory ...
 Calculating source influence matrix ...

 Solving BL system ...

 Side 1  free  transition at x/c =  0.5248   60
 Side 2  free  transition at x/c =  0.2778   33

   1   rms: 0.1634E+00   max: -.1223E+01   T at   33  2   RLX: 0.409
       a =  6.000      CL =  2.0759
      Cm = -0.3119     CD =  0.02149   =>   CDf =  0.00716    CDp =  0.01433

 Side 1  free  transition at x/c =  0.5186   60
 Side 2  free  transition at x/c =  0.2949   33

   2   rms: 0.8421E-01   max: -.4788E+00   T at   33  2
       a =  6.000      CL =  2.1049
      Cm = -0.3060     CD =  0.02271   =>   CDf =  0.00744    CDp =  0.01527

 Side 1  free  transition at x/c =  0.5037   59
 Side 2  free  transition at x/c =  0.3103   34

   3   rms: 0.3946E-01   max: -.2914E+00   D at   60  1
       a =  6.000      CL =  2.1242
      Cm = -0.3094     CD =  0.02237   =>   CDf =  0.00748    CDp =  0.01489

 Side 1  free  transition at x/c =  0.5069   60
 Side 2  free  transition at x/c =  0.3146   34

   4   rms: 0.1884E-01   max: 0.1094E+00   D at   82  2
       a =  6.000      CL =  2.1176
      Cm = -0.3082     CD =  0.02247   =>   CDf =  0.00739    CDp =  0.01509

 Side 1  free  transition at x/c =  0.5061   60
 Side 2  free  transition at x/c =  0.3140   34

   5   rms: 0.1528E-02   max: 0.8710E-02   D at   80  2
       a =  6.000      CL =  2.1163
      Cm = -0.3079     CD =  0.02251   =>   CDf =  0.00738    CDp =  0.01513

 Side 1  free  transition at x/c =  0.5060   60
 Side 2  free  transition at x/c =  0.3138   34

   6   rms: 0.4221E-04   max: 0.2584E-03   D at   77  2
       a =  6.000      CL =  2.1163
      Cm = -0.3079     CD =  0.02251   =>   CDf =  0.00738    CDp =  0.01513

 Point added to stored polar  1
 Point written to save file  000288M0.04.log                                 
 Dump file unspecified or not available
 Calculating wake trajectory ...
 Calculating source influence matrix ...

 Solving BL system ...

 Side 1  free  transition at x/c =  0.5060   60
 Side 2  free  transition at x/c =  0.3138   34

   1   rms: 0.1690E+00   max: -.1224E+01   T at   34  2   RLX: 0.409
       a =  7.000      CL =  2.1610
      Cm = -0.3083     CD =  0.02307   =>   CDf =  0.00707    CDp =  0.01600

 Side 1  free  transition at x/c =  0.4997   60
 Side 2  free  transition at x/c =  0.3360   34

   2   rms: 0.8423E-01   max: -.5562E+00   T at   34  2   RLX: 0.899
       a =  7.000      CL =  2.1705
      Cm = -0.3002     CD =  0.02452   =>   CDf =  0.00735    CDp =  0.01717

 MRCHDU: Convergence failed at  36  side 2    Res =  0.7517E+01
 MRCHDU: Convergence failed at  37  side 2    Res =  0.2677E+02
 MRCHDU: Convergence failed at  38  side 2    Res =  0.7701E+01
 MRCHDU: Convergence failed at  39  side 2    Res =  0.7056E+01
 MRCHDU: Convergence failed at  40  side 2    Res =  0.7756E+01
 MRCHDU: Convergence failed at  41  side 2    Res =  0.4243E+01
 MRCHDU: Convergence failed at  42  side 2    Res =  0.4712E+01
 MRCHDU: Convergence failed at  43  side 2    Res =  0.4980E+01
 MRCHDU: Convergence failed at  44  side 2    Res =  0.5128E+01
 MRCHDU: Convergence failed at  45  side 2    Res =  0.5016E+01
 MRCHDU: Convergence failed at  46  side 2    Res =  0.4753E+01
 MRCHDU: Convergence failed at  47  side 2    Res =  0.4359E+01
 MRCHDU: Convergence failed at  48  side 2    Res =  0.3932E+01
 MRCHDU: Convergence failed at  49  side 2    Res =  0.3470E+01
 MRCHDU: Convergence failed at  50  side 2    Res =  0.7251E+01
 MRCHDU: Convergence failed at  51  side 2    Res =  0.6561E+01
 MRCHDU: Convergence failed at  52  side 2    Res =  0.6065E+01
 MRCHDU: Convergence failed at  53  side 2    Res =  0.6011E+01
 MRCHDU: Convergence failed at  54  side 2    Res =  0.5996E+01
 MRCHDU: Convergence failed at  55  side 2    Res =  0.7885E+01
 Side 1  free  transition at x/c =  0.4864   59
 Side 2  free  transition at x/c =  0.3546   35

   3   rms: 0.1416E+00   max: 0.1239E+01   T at   35  2   RLX: 0.607
       a =  7.000      CL =  2.1665
      Cm = -0.2974     CD =  0.02487   =>   CDf =  0.00688    CDp =  0.01799

 MRCHDU: Convergence failed at  48  side 2    Res =  0.1838E+01
 Side 1  free  transition at x/c =  0.4870   60
 Side 2  free  transition at x/c =  0.3340   34

   4   rms: 0.1197E+00   max: -.9313E+00   D at   39  2   RLX: 0.537
       a =  7.000      CL =  2.1757
      Cm = -0.2994     CD =  0.02529   =>   CDf =  0.00747    CDp =  0.01782

 Side 1  free  transition at x/c =  0.4872   60
 Side 2  free  transition at x/c =  0.3524   35

   5   rms: 0.8290E-01   max: -.8774E+00   D at   40  2   RLX: 0.570
       a =  7.000      CL =  2.1796
      Cm = -0.3004     CD =  0.02466   =>   CDf =  0.00732    CDp =  0.01734

 Side 1  free  transition at x/c =  0.4872   60
 Side 2  free  transition at x/c =  0.3561   36

   6   rms: 0.4869E-01   max: -.6698E+00   D at   41  2   RLX: 0.747
       a =  7.000      CL =  2.1819
      Cm = -0.3010     CD =  0.02457   =>   CDf =  0.00729    CDp =  0.01728

 Side 1  free  transition at x/c =  0.4872   60
 Side 2  free  transition at x/c =  0.3557   36

   7   rms: 0.2161E-01   max: -.3628E+00   D at   41  2
       a =  7.000      CL =  2.1821
      Cm = -0.3010     CD =  0.02454   =>   CDf =  0.00728    CDp =  0.01726

 Side 1  free  transition at x/c =  0.4872   60
 Side 2  free  transition at x/c =  0.3544   35

   8   rms: 0.4731E-02   max: 0.5969E-01   D at   36  2
       a =  7.000      CL =  2.1821
      Cm = -0.3010     CD =  0.02454   =>   CDf =  0.00729    CDp =  0.01725

 Side 1  free  transition at x/c =  0.4872   60
 Side 2  free  transition at x/c =  0.3536   35

   9   rms: 0.2203E-03   max: 0.2413E-02   D at   36  2
       a =  7.000      CL =  2.1821
      Cm = -0.3010     CD =  0.02454   =>   CDf =  0.00728    CDp =  0.01726

 Side 1  free  transition at x/c =  0.4872   60
 Side 2  free  transition at x/c =  0.3536   35

  10   rms: 0.1381E-05   max: 0.1041E-04   D at    2  2
       a =  7.000      CL =  2.1821
      Cm = -0.3010     CD =  0.02454   =>   CDf =  0.00728    CDp =  0.01726

 Point added to stored polar  1
 Point written to save file  000288M0.04.log                                 
 Dump file unspecified or not available
 Calculating wake trajectory ...
 Calculating source influence matrix ...

 Solving BL system ...

 Side 1  free  transition at x/c =  0.4872   60
 Side 2  free  transition at x/c =  0.3536   35

   1   rms: 0.1935E+00   max: -.1599E+01   T at   35  2   RLX: 0.313
       a =  8.000      CL =  2.2216
      Cm = -0.3023     CD =  0.02492   =>   CDf =  0.00694    CDp =  0.01798

 MRCHDU: Convergence failed at  36  side 2    Res =  0.3909E+01
 MRCHDU: Convergence failed at  37  side 2    Res =  0.8525E+01
 MRCHDU: Convergence failed at  38  side 2    Res =  0.6061E+01
 MRCHDU: Convergence failed at  39  side 2    Res =  0.1332E+02
 MRCHDU: Convergence failed at  40  side 2    Res =  0.3199E+02
 MRCHDU: Convergence failed at  41  side 2    Res =  0.1408E+03
 MRCHDU: Convergence failed at  42  side 2    Res =  0.1900E+03
 MRCHDU: Convergence failed at  43  side 2    Res =  0.8674E+02
 MRCHDU: Convergence failed at  44  side 2    Res =  0.7166E+02
 MRCHDU: Convergence failed at  45  side 2    Res =  0.7394E+02
 MRCHDU: Convergence failed at  46  side 2    Res =  0.9682E+02
 MRCHDU: Convergence failed at  47  side 2    Res =  0.2379E+03
 MRCHDU: Convergence failed at  48  side 2    Res =  0.1610E+03
 MRCHDU: Convergence failed at  49  side 2    Res =  0.4348E+02
 MRCHDU: Convergence failed at  50  side 2    Res =  0.2041E+02
 MRCHDU: Convergence failed at  51  side 2    Res =  0.1111E+02
 MRCHDU: Convergence failed at  52  side 2    Res =  0.6098E+01
 MRCHDU: Convergence failed at  53  side 2    Res =  0.3964E+01
 Side 1  free  transition at x/c =  0.4818   60
 Side 2  free  transition at x/c =  0.3794   36

   2   rms: 0.2274E+00   max: -.1124E+01   D at   51  2   RLX: 0.445
       a =  8.000      CL =  2.2083
      Cm = -0.2940     CD =  0.02556   =>   CDf =  0.00672    CDp =  0.01884

 Side 1  free  transition at x/c =  0.4746   60
 Side 2  free  transition at x/c =  0.3877   36

   3   rms: 0.6513E-01   max: -.6040E+00   D at   38  2   RLX: 0.828
       a =  8.000      CL =  2.2261
      Cm = -0.2922     CD =  0.02741   =>   CDf =  0.00716    CDp =  0.02026

 Side 1  free  transition at x/c =  0.4689   59
 Side 2  free  transition at x/c =  0.3991   37

   4   rms: 0.2056E-01   max: 0.1896E+00   D at   37  2
       a =  8.000      CL =  2.2327
      Cm = -0.2925     CD =  0.02745   =>   CDf =  0.00711    CDp =  0.02034

 Side 1  free  transition at x/c =  0.4673   59
 Side 2  free  transition at x/c =  0.3989   37

   5   rms: 0.1527E-02   max: 0.1131E-01   D at   38  2
       a =  8.000      CL =  2.2331
      Cm = -0.2926     CD =  0.02744   =>   CDf =  0.00704    CDp =  0.02040

 Side 1  free  transition at x/c =  0.4674   59
 Side 2  free  transition at x/c =  0.3987   37

   6   rms: 0.7688E-04   max: -.3492E-03   D at   85  1
       a =  8.000      CL =  2.2332
      Cm = -0.2926     CD =  0.02744   =>   CDf =  0.00704    CDp =  0.02040

 Point added to stored polar  1
 Point written to save file  000288M0.04.log                                 
 Dump file unspecified or not available
 Calculating wake trajectory ...
 Calculating source influence matrix ...

 Solving BL system ...

 Side 1  free  transition at x/c =  0.4674   59
 Side 2  free  transition at x/c =  0.3987   37

   1   rms: 0.1462E+00   max: -.7473E+00   T at   37  2   RLX: 0.669
       a =  9.000      CL =  2.2279
      Cm = -0.2815     CD =  0.03112   =>   CDf =  0.00668    CDp =  0.02445

 Side 1  free  transition at x/c =  0.4442   59
 Side 2  free  transition at x/c =  0.4273   38

   2   rms: 0.6481E-01   max: -.3653E+00   T at   38  2
       a =  9.000      CL =  2.2311
      Cm = -0.2776     CD =  0.03315   =>   CDf =  0.00704    CDp =  0.02611

 Side 1  free  transition at x/c =  0.4386   59
 Side 2  free  transition at x/c =  0.4416   39

   3   rms: 0.5400E-01   max: -.4273E+00   T at   39  2
       a =  9.000      CL =  2.2468
      Cm = -0.2800     CD =  0.03254   =>   CDf =  0.00680    CDp =  0.02574

 Side 1  free  transition at x/c =  0.4372   59
 Side 2  free  transition at x/c =  0.4532   39

   4   rms: 0.1978E-01   max: -.2375E+00   D at   39  2
       a =  9.000      CL =  2.2474
      Cm = -0.2800     CD =  0.03260   =>   CDf =  0.00683    CDp =  0.02577

 Side 1  free  transition at x/c =  0.4369   59
 Side 2  free  transition at x/c =  0.4541   39

   5   rms: 0.2198E-02   max: 0.2277E-01   D at   40  2
       a =  9.000      CL =  2.2475
      Cm = -0.2800     CD =  0.03260   =>   CDf =  0.00683    CDp =  0.02577

 Side 1  free  transition at x/c =  0.4369   59
 Side 2  free  transition at x/c =  0.4530   39

   6   rms: 0.3050E-04   max: -.3407E-03   D at   39  2
       a =  9.000      CL =  2.2475
      Cm = -0.2800     CD =  0.03260   =>   CDf =  0.00683    CDp =  0.02577

 Point added to stored polar  1
 Point written to save file  000288M0.04.log                                 
 Dump file unspecified or not available
 Calculating wake trajectory ...
 Calculating source influence matrix ...

 Solving BL system ...

 Side 1  free  transition at x/c =  0.4369   59
 Side 2  free  transition at x/c =  0.4530   39

   1   rms: 0.1573E+00   max: -.9979E+00   T at   39  2   RLX: 0.501
       a = 10.000      CL =  2.2678
      Cm = -0.2759     CD =  0.03486   =>   CDf =  0.00644    CDp =  0.02842

 Side 1  free  transition at x/c =  0.4298   59
 Side 2  free  transition at x/c =  0.5009   41

   2   rms: 0.1270E+00   max: -.1615E+01   C at   41  2   RLX: 0.310
       a = 10.000      CL =  2.2720
      Cm = -0.2753     CD =  0.03605   =>   CDf =  0.00662    CDp =  0.02943

 Side 1  free  transition at x/c =  0.4235   59
 Side 2  free  transition at x/c =  0.5107   42

   3   rms: 0.1268E+00   max: -.1251E+01   C at   42  2   RLX: 0.400
       a = 10.000      CL =  2.2742
      Cm = -0.2738     CD =  0.03701   =>   CDf =  0.00660    CDp =  0.03041

 Side 1  free  transition at x/c =  0.4187   59
 Side 2  free  transition at x/c =  0.5302   43

   4   rms: 0.1460E+00   max: -.1779E+01   C at   43  2   RLX: 0.281
       a = 10.000      CL =  2.2766
      Cm = -0.2733     CD =  0.03736   =>   CDf =  0.00665    CDp =  0.03070

 Side 1  free  transition at x/c =  0.4168   58
 Side 2  free  transition at x/c =  0.5448   44

   5   rms: 0.1343E+00   max: -.1776E+01   C at   44  2   RLX: 0.282
       a = 10.000      CL =  2.2764
      Cm = -0.2728     CD =  0.03776   =>   CDf =  0.00668    CDp =  0.03107

 Side 1  free  transition at x/c =  0.4154   58
 Side 2  free  transition at x/c =  0.5622   45

   6   rms: 0.1556E+00   max: -.2358E+01   C at   45  2   RLX: 0.212
       a = 10.000      CL =  2.2767
      Cm = -0.2727     CD =  0.03794   =>   CDf =  0.00662    CDp =  0.03133

 Side 1  free  transition at x/c =  0.4146   58
 Side 2  free  transition at x/c =  0.5777   45

   7   rms: 0.6740E-01   max: -.7622E+00   C at   45  2   RLX: 0.656
       a = 10.000      CL =  2.2756
      Cm = -0.2719     CD =  0.03841   =>   CDf =  0.00657    CDp =  0.03184

 Side 1  free  transition at x/c =  0.4126   58
 Side 2 forced transition at x/c =  1.0001   70

   8   rms: 0.1531E-01   max: 0.2185E+00   D at   45  2
       a = 10.000      CL =  2.2718
      Cm = -0.2708     CD =  0.03841   =>   CDf =  0.00632    CDp =  0.03209

 Side 1  free  transition at x/c =  0.4119   58
 Side 2 forced transition at x/c =  1.0001   70

   9   rms: 0.1352E-02   max: 0.1149E-01   D at   46  2
       a = 10.000      CL =  2.2717
      Cm = -0.2708     CD =  0.03839   =>   CDf =  0.00630    CDp =  0.03209

 Side 1  free  transition at x/c =  0.4119   58
 Side 2 forced transition at x/c =  1.0001   70

  10   rms: 0.1561E-04   max: 0.1217E-03   D at   41  2
       a = 10.000      CL =  2.2717
      Cm = -0.2708     CD =  0.03839   =>   CDf =  0.00630    CDp =  0.03209

 Point added to stored polar  1
 Point written to save file  000288M0.04.log                                 
 Dump file unspecified or not available
 Calculating wake trajectory ...
 Calculating source influence matrix ...

 Solving BL system ...

 Side 1  free  transition at x/c =  0.4119   58
 Side 2 forced transition at x/c =  1.0001   70

   1   rms: 0.1749E+00   max: 0.5188E+00   D at   79  1   RLX: 0.750
       a = 11.000      CL =  2.2713
      Cm = -0.2629     CD =  0.04528   =>   CDf =  0.00589    CDp =  0.03939

 Side 1  free  transition at x/c =  0.3860   58
 Side 2 forced transition at x/c =  1.0001   69

   2   rms: 0.4107E-01   max: -.3974E+00   D at   58  1
       a = 11.000      CL =  2.2705
      Cm = -0.2604     CD =  0.04758   =>   CDf =  0.00639    CDp =  0.04119

 Side 1  free  transition at x/c =  0.3830   58
 Side 2 forced transition at x/c =  1.0001   69

   3   rms: 0.1162E-01   max: -.6351E-01   D at   80  1
       a = 11.000      CL =  2.2783
      Cm = -0.2610     CD =  0.04680   =>   CDf =  0.00624    CDp =  0.04056

 Side 1  free  transition at x/c =  0.3819   57
 Side 2 forced transition at x/c =  1.0001   69

   4   rms: 0.8967E-03   max: -.1216E-01   C at   57  1
       a = 11.000      CL =  2.2785
      Cm = -0.2611     CD =  0.04691   =>   CDf =  0.00629    CDp =  0.04062

 Side 1  free  transition at x/c =  0.3818   57
 Side 2 forced transition at x/c =  1.0001   69

   5   rms: 0.1679E-04   max: 0.2769E-03   D at   82  2
       a = 11.000      CL =  2.2785
      Cm = -0.2611     CD =  0.04690   =>   CDf =  0.00628    CDp =  0.04063

 Point added to stored polar  1
 Point written to save file  000288M0.04.log                                 
 Dump file unspecified or not available
 Calculating wake trajectory ...
 Calculating source influence matrix ...

 Solving BL system ...

 Side 1  free  transition at x/c =  0.3818   57
 Side 2 forced transition at x/c =  1.0001   69

   1   rms: 0.1347E+00   max: 0.4721E+00   D at   77  1   RLX: 0.658
       a = 12.000      CL =  2.2858
      Cm = -0.2564     CD =  0.05347   =>   CDf =  0.00585    CDp =  0.04762

 Side 1  free  transition at x/c =  0.3536   57
 Side 2 forced transition at x/c =  1.0001   68

   2   rms: 0.5163E-01   max: -.3870E+00   D at   57  1
       a = 12.000      CL =  2.2688
      Cm = -0.2524     CD =  0.05885   =>   CDf =  0.00637    CDp =  0.05248

 Side 1  free  transition at x/c =  0.3518   57
 Side 2 forced transition at x/c =  1.0001   68

   3   rms: 0.8376E-02   max: 0.9431E-01   C at   57  1
       a = 12.000      CL =  2.2720
      Cm = -0.2524     CD =  0.05805   =>   CDf =  0.00605    CDp =  0.05200

 Side 1  free  transition at x/c =  0.3493   57
 Side 2 forced transition at x/c =  1.0001   68

   4   rms: 0.1257E-02   max: -.7371E-02   D at   77  1
       a = 12.000      CL =  2.2729
      Cm = -0.2525     CD =  0.05799   =>   CDf =  0.00614    CDp =  0.05184

 Side 1  free  transition at x/c =  0.3492   57
 Side 2 forced transition at x/c =  1.0001   68

   5   rms: 0.1178E-03   max: -.7014E-03   D at   82  2
       a = 12.000      CL =  2.2730
      Cm = -0.2525     CD =  0.05799   =>   CDf =  0.00615    CDp =  0.05184

 Side 1  free  transition at x/c =  0.3492   57
 Side 2 forced transition at x/c =  1.0001   68

   6   rms: 0.5517E-05   max: -.3532E-04   D at   82  2
       a = 12.000      CL =  2.2730
      Cm = -0.2525     CD =  0.05799   =>   CDf =  0.00615    CDp =  0.05184

 Point added to stored polar  1
 Point written to save file  000288M0.04.log                                 
 Dump file unspecified or not available
 Calculating wake trajectory ...
 Calculating source influence matrix ...

 Solving BL system ...

 Side 1  free  transition at x/c =  0.3492   57
 Side 2 forced transition at x/c =  1.0001   68

   1   rms: 0.1309E+00   max: -.5551E+00   D at   57  1   RLX: 0.561
       a = 13.000      CL =  2.2709
      Cm = -0.2481     CD =  0.06476   =>   CDf =  0.00617    CDp =  0.05859

 Side 1  free  transition at x/c =  0.3309   55
 Side 2 forced transition at x/c =  1.0001   68

   2   rms: 0.6384E-01   max: 0.3499E+00   D at   76  1
       a = 13.000      CL =  2.2671
      Cm = -0.2459     CD =  0.07115   =>   CDf =  0.00565    CDp =  0.06550

 Side 1  free  transition at x/c =  0.3097   55
 Side 2 forced transition at x/c =  1.0001   67

   3   rms: 0.1687E-01   max: -.1258E+00   C at   55  1
       a = 13.000      CL =  2.2546
      Cm = -0.2449     CD =  0.07191   =>   CDf =  0.00663    CDp =  0.06528

 Side 1  free  transition at x/c =  0.3142   54
 Side 2 forced transition at x/c =  1.0001   68

   4   rms: 0.2105E-02   max: 0.2866E-01   D at    2  2
       a = 13.000      CL =  2.2551
      Cm = -0.2449     CD =  0.07164   =>   CDf =  0.00603    CDp =  0.06561

 Side 1  free  transition at x/c =  0.3141   54
 Side 2 forced transition at x/c =  1.0001   68

   5   rms: 0.6533E-03   max: 0.8207E-02   D at    4  2
       a = 13.000      CL =  2.2552
      Cm = -0.2449     CD =  0.07165   =>   CDf =  0.00603    CDp =  0.06562

 Side 1  free  transition at x/c =  0.3141   54
 Side 2 forced transition at x/c =  1.0001   68

   6   rms: 0.4453E-04   max: -.1111E-02   D at    2  2
       a = 13.000      CL =  2.2552
      Cm = -0.2449     CD =  0.07165   =>   CDf =  0.00603    CDp =  0.06562

 Point added to stored polar  1
 Point written to save file  000288M0.04.log                                 
 Dump file unspecified or not available
 Calculating wake trajectory ...
 Calculating source influence matrix ...

 Solving BL system ...

 Side 1  free  transition at x/c =  0.3141   54
 Side 2 forced transition at x/c =  1.0001   68

   1   rms: 0.1275E+00   max: 0.5037E+00   D at   73  1   RLX: 0.492
       a = 14.000      CL =  2.2556
      Cm = -0.2427     CD =  0.07858   =>   CDf =  0.00557    CDp =  0.07301

 Side 1  free  transition at x/c =  0.2943   54
 Side 2 forced transition at x/c =  1.0001   67

   2   rms: 0.6178E-01   max: 0.3282E+00   D at   74  1
       a = 14.000      CL =  2.2452
      Cm = -0.2396     CD =  0.08635   =>   CDf =  0.00604    CDp =  0.08031

 Side 1  free  transition at x/c =  0.2727   53
 Side 2 forced transition at x/c =  1.0001   67

   3   rms: 0.2021E-01   max: -.1710E+00   C at   53  1
       a = 14.000      CL =  2.2300
      Cm = -0.2388     CD =  0.08740   =>   CDf =  0.00602    CDp =  0.08138

 Side 1  free  transition at x/c =  0.2789   53
 Side 2 forced transition at x/c =  1.0001   67

   4   rms: 0.1679E-02   max: -.1869E-01   C at   53  1
       a = 14.000      CL =  2.2302
      Cm = -0.2386     CD =  0.08696   =>   CDf =  0.00589    CDp =  0.08108

 Side 1  free  transition at x/c =  0.2791   53
 Side 2 forced transition at x/c =  1.0001   67

   5   rms: 0.1803E-03   max: -.8802E-03   D at   85  2
       a = 14.000      CL =  2.2303
      Cm = -0.2387     CD =  0.08697   =>   CDf =  0.00588    CDp =  0.08109

 Side 1  free  transition at x/c =  0.2790   53
 Side 2 forced transition at x/c =  1.0001   67

   6   rms: 0.1124E-04   max: -.7260E-04   D at   83  2
       a = 14.000      CL =  2.2303
      Cm = -0.2387     CD =  0.08698   =>   CDf =  0.00588    CDp =  0.08109

 Point added to stored polar  1
 Point written to save file  000288M0.04.log                                 
 Dump file unspecified or not available
 Calculating wake trajectory ...
 Calculating source influence matrix ...

 Solving BL system ...

 Side 1  free  transition at x/c =  0.2790   53
 Side 2 forced transition at x/c =  1.0001   67

   1   rms: 0.1280E+00   max: 0.5661E+00   D at   71  1   RLX: 0.429
       a = 15.000      CL =  2.2240
      Cm = -0.2371     CD =  0.09444   =>   CDf =  0.00590    CDp =  0.08853

 Side 1  free  transition at x/c =  0.2573   52
 Side 2 forced transition at x/c =  1.0001   67

   2   rms: 0.7419E-01   max: 0.4090E+00   D at   71  1
       a = 15.000      CL =  2.2021
      Cm = -0.2346     CD =  0.10571   =>   CDf =  0.00546    CDp =  0.10025

 Side 1  free  transition at x/c =  0.2357   52
 Side 2 forced transition at x/c =  1.0001   66

   3   rms: 0.1631E-01   max: 0.1542E+00   D at   71  1
       a = 15.000      CL =  2.1923
      Cm = -0.2342     CD =  0.10524   =>   CDf =  0.00592    CDp =  0.09932

 Side 1  free  transition at x/c =  0.2389   52
 Side 2 forced transition at x/c =  1.0001   66

   4   rms: 0.1162E-02   max: 0.8156E-02   D at   83  2
       a = 15.000      CL =  2.1918
      Cm = -0.2341     CD =  0.10491   =>   CDf =  0.00581    CDp =  0.09910

 Side 1  free  transition at x/c =  0.2391   52
 Side 2 forced transition at x/c =  1.0001   66

   5   rms: 0.3417E-04   max: 0.3655E-03   D at   82  2
       a = 15.000      CL =  2.1918
      Cm = -0.2341     CD =  0.10489   =>   CDf =  0.00580    CDp =  0.09909

 Point added to stored polar  1
 Point written to save file  000288M0.04.log                                 
 Dump file unspecified or not available

.OPERva   c>  
 XFOIL   c>  
0.1
resp: 
 ===================================================
  XFOIL Version 6.97
  Copyright (C) 2000   Mark Drela, Harold Youngren

  This software comes with ABSOLUTELY NO WARRANTY,
    subject to the GNU General Public License.

  Caveat computor
 ===================================================

 File  xfoil.def  not found

   QUIT    Exit program

  .OPER    Direct operating point(s)
  .MDES    Complex mapping design routine
  .QDES    Surface speed design routine
  .GDES    Geometry design routine

   SAVE f  Write airfoil to labeled coordinate file
   PSAV f  Write airfoil to plain coordinate file
   ISAV f  Write airfoil to ISES coordinate file
   MSAV f  Write airfoil to MSES coordinate file
   REVE    Reverse written-airfoil node ordering
   DELI i  Change written-airfoil file delimiters

   LOAD f  Read buffer airfoil from coordinate file
   NACA i  Set NACA 4,5-digit airfoil and buffer airfoil
   INTE    Set buffer airfoil by interpolating two airfoils
   NORM    Buffer airfoil normalization toggle
   HALF    Halve the number of points in buffer airfoil
   XYCM rr Change CM reference location, currently  0.25000 0.00000

   BEND    Display structural properties of current airfoil

   PCOP    Set current-airfoil panel nodes directly from buffer airfoil points
   PANE    Set current-airfoil panel nodes ( 160 ) based on curvature
  .PPAR    Show/change paneling

  .PLOP    Plotting options

   WDEF f  Write  current-settings file
   RDEF f  Reread current-settings file
   NAME s  Specify new airfoil name
   NINC    Increment name version number

   Z       Zoom    | (available in all menus)
   U       Unzoom  | 

 XFOIL   c>   ...............................................

  G raphics-enable flag:        T
  S ize of plot object          10.00"
  A spect ratio of plot object   0.5500
  P age dimensions              11.00 x  8.50"
  M argins from page edges       0.00",  0.00"
  F ont size (relative)          0.0150
  W indow/screen size fraction   0.8000
  B lowup input method:        Cursor    
  O rientation of plot:        Landscape 
  C olor PostScript output?     F

      Option, Value   (or <Return>)    c>   ...............................................

  G raphics-enable flag:        F
  S ize of plot object          10.00"
  A spect ratio of plot object   0.5500
  P age dimensions              11.00 x  8.50"
  M argins from page edges       0.00",  0.00"
  F ont size (relative)          0.0150
  W indow/screen size fraction   0.8000
  B lowup input method:        Cursor    
  O rientation of plot:        Landscape 
  C olor PostScript output?     F

      Option, Value   (or <Return>)    c>  
 XFOIL   c>  
 Labeled airfoil file.  Name:  000288                                          

 Number of input coordinate points: 200
 Clockwise ordering
 Max thickness =     0.129270  at x =   0.158
 Max camber    =     0.137495  at x =   0.469

  LE  x,y  =  -0.00005   0.00157  |   Chord =   0.99992
  TE  x,y  =   0.99988   0.00006  |

 Current airfoil nodes set from buffer airfoil nodes ( 200 )

 XFOIL   c>  
 You are working with the buffer airfoil

.GDES   c>  
  i       x        y      angle
   2   0.9990   0.0005    0.014
   3   0.9978   0.0011    0.032
   4   0.9961   0.0019    0.029
   5   0.9938   0.0030    0.053
   6   0.9911   0.0043    0.059
   7   0.9880   0.0059    0.070
   8   0.9843   0.0077    0.093
   9   0.9801   0.0097    0.090
  10   0.9755   0.0119    0.097
  11   0.9704   0.0143    0.111
  12   0.9649   0.0170    0.130
  13   0.9589   0.0198    0.125
  14   0.9524   0.0229    0.156
  15   0.9455   0.0261    0.162
  16   0.9382   0.0295    0.162
  17   0.9304   0.0331    0.189
  18   0.9222   0.0368    0.196
  19   0.9135   0.0407    0.210
  20   0.9045   0.0448    0.225
  21   0.8951   0.0490    0.237
  22   0.8853   0.0533    0.249
  23   0.8751   0.0577    0.274
  24   0.8645   0.0622    0.278
  25   0.8536   0.0669    0.302
  26   0.8423   0.0715    0.312
  27   0.8307   0.0763    0.336
  28   0.8187   0.0811    0.353
  29   0.8065   0.0860    0.367
  30   0.7939   0.0908    0.391
  31   0.7810   0.0957    0.408
  32   0.7679   0.1006    0.429
  33   0.7545   0.1055    0.453
  34   0.7409   0.1103    0.476
  35   0.7270   0.1151    0.492
  36   0.7129   0.1199    0.519
  37   0.6986   0.1245    0.544
  38   0.6841   0.1291    0.570
  39   0.6694   0.1336    0.592
  40   0.6545   0.1379    0.618
  41   0.6395   0.1422    0.647
  42   0.6243   0.1463    0.670
  43   0.6091   0.1502    0.700
  44   0.5937   0.1539    0.732
  45   0.5782   0.1575    0.749
  46   0.5627   0.1609    0.786
  47   0.5471   0.1640    0.812
  48   0.5314   0.1670    0.838
  49   0.5157   0.1697    0.869
  50   0.5000   0.1722    0.896
  51   0.4843   0.1744    0.922
  52   0.4686   0.1763    0.954
  53   0.4529   0.1780    0.978
  54   0.4373   0.1794    1.008
  55   0.4218   0.1806    1.027
  56   0.4063   0.1814    1.059
  57   0.3909   0.1820    1.080
  58   0.3757   0.1822    1.104
  59   0.3605   0.1822    1.127
  60   0.3455   0.1819    1.152
  61   0.3306   0.1813    1.170
  62   0.3159   0.1804    1.191
  63   0.3014   0.1792    1.211
  64   0.2871   0.1777    1.231
  65   0.2730   0.1759    1.248
  66   0.2591   0.1738    1.275
  67   0.2455   0.1715    1.284
  68   0.2321   0.1689    1.310
  69   0.2190   0.1660    1.324
  70   0.2061   0.1629    1.350
  71   0.1935   0.1596    1.369
  72   0.1813   0.1560    1.399
  73   0.1693   0.1522    1.412
  74   0.1577   0.1481    1.459
  75   0.1464   0.1439    1.477
  76   0.1355   0.1394    1.517
  77   0.1249   0.1348    1.566
  78   0.1147   0.1300    1.606
  79   0.1049   0.1251    1.666
  80   0.0955   0.1200    1.720
  81   0.0865   0.1147    1.794
  82   0.0778   0.1093    1.871
  83   0.0696   0.1038    1.964
  84   0.0618   0.0982    2.055
  85   0.0545   0.0925    2.172
  86   0.0476   0.0867    2.305
  87   0.0411   0.0808    2.436
  88   0.0351   0.0749    2.588
  89   0.0296   0.0688    2.755
  90   0.0245   0.0627    2.934
  91   0.0199   0.0566    3.125
  92   0.0157   0.0504    3.335
  93   0.0120   0.0442    3.510
  94   0.0089   0.0379    3.741
  95   0.0062   0.0317    3.914
  96   0.0039   0.0254    4.089
  97   0.0022   0.0190    4.249
  98   0.0010   0.0127    4.349
  99   0.0002   0.0063    4.424
 100   0.0000   0.0000   10.494
 101   0.0002  -0.0017   15.619
 102   0.0010  -0.0034   13.538
 103   0.0022  -0.0050   11.156
 104   0.0039  -0.0065    9.046
 105   0.0062  -0.0079    7.374
 106   0.0089  -0.0092    6.145
 107   0.0120  -0.0103    5.150
 108   0.0157  -0.0111    4.429
 109   0.0199  -0.0118    3.822
 110   0.0245  -0.0123    3.360
 111   0.0296  -0.0125    2.950
 112   0.0351  -0.0124    2.609
 113   0.0411  -0.0120    2.339
 114   0.0476  -0.0113    2.055
 115   0.0545  -0.0104    1.845
 116   0.0618  -0.0091    1.638
 117   0.0696  -0.0076    1.440
 118   0.0778  -0.0057    1.278
 119   0.0865  -0.0036    1.104
 120   0.0955  -0.0011    0.970
 121   0.1049   0.0016    0.820
 122   0.1147   0.0046    0.697
 123   0.1249   0.0079    0.559
 124   0.1355   0.0113    0.452
 125   0.1464   0.0150    0.339
 126   0.1577   0.0189    0.230
 127   0.1693   0.0230    0.125
 128   0.1813   0.0272    0.032
 129   0.1935   0.0315   -0.064
 130   0.2061   0.0359   -0.154
 131   0.2190   0.0404   -0.244
 132   0.2321   0.0449   -0.323
 133   0.2455   0.0494   -0.404
 134   0.2591   0.0538   -0.483
 135   0.2730   0.0583   -0.548
 136   0.2871   0.0626   -0.624
 137   0.3014   0.0669   -0.689
 138   0.3159   0.0710   -0.748
 139   0.3306   0.0750   -0.809
 140   0.3455   0.0788   -0.861
 141   0.3605   0.0824   -0.909
 142   0.3757   0.0857   -0.955
 143   0.3909   0.0889   -0.994
 144   0.4063   0.0917   -1.035
 145   0.4218   0.0943   -1.056
 146   0.4373   0.0967   -1.089
 147   0.4529   0.0987   -1.107
 148   0.4686   0.1004   -1.119
 149   0.4843   0.1018   -1.132
 150   0.5000   0.1029   -1.134
 151   0.5157   0.1037   -1.135
 152   0.5314   0.1042   -1.127
 153   0.5471   0.1044   -1.121
 154   0.5627   0.1043   -1.107
 155   0.5782   0.1038   -1.087
 156   0.5937   0.1031   -1.063
 157   0.6091   0.1021   -1.045
 158   0.6243   0.1008   -1.009
 159   0.6395   0.0993   -0.985
 160   0.6545   0.0975   -0.952
 161   0.6694   0.0955   -0.916
 162   0.6841   0.0933   -0.876
 163   0.6986   0.0908   -0.850
 164   0.7129   0.0882   -0.806
 165   0.7270   0.0854   -0.769
 166   0.7409   0.0825   -0.727
 167   0.7545   0.0794   -0.701
 168   0.7679   0.0763   -0.649
 169   0.7810   0.0730   -0.621
 170   0.7939   0.0696   -0.582
 171   0.8065   0.0662   -0.544
 172   0.8187   0.0627   -0.517
 173   0.8307   0.0593   -0.472
 174   0.8423   0.0558   -0.446
 175   0.8536   0.0523   -0.419
 176   0.8645   0.0488   -0.378
 177   0.8751   0.0454   -0.358
 178   0.8853   0.0420   -0.331
 179   0.8951   0.0387   -0.301
 180   0.9045   0.0354   -0.277
 181   0.9135   0.0323   -0.258
 182   0.9222   0.0292   -0.228
 183   0.9304   0.0263   -0.212
 184   0.9382   0.0234   -0.192
 185   0.9455   0.0207   -0.168
 186   0.9524   0.0182   -0.162
 187   0.9589   0.0158   -0.133
 188   0.9649   0.0135   -0.132
 189   0.9704   0.0114   -0.106
 190   0.9755   0.0095   -0.094
 191   0.9801   0.0077   -0.090
 192   0.9843   0.0061   -0.084
 193   0.9880   0.0047   -0.054
 194   0.9911   0.0034   -0.060
 195   0.9938   0.0024   -0.027
 196   0.9961   0.0015   -0.036
 197   0.9978   0.0009   -0.031
 198   0.9990   0.0004   -0.074
 199   0.9998   0.0001    0.161

 Maximum panel corner angle = 15.619   at  i,x,y  = 101   0.0002  -0.0017

 Enter corner angle criterion for refinement (deg):   7.810
 Enter type of spline parameter (1=uniform, 2=arclength):   1
 Enter refinement x limits:  -0.10000   1.10000
 Number of points added:           10
 Max thickness =     0.129188  at x =   0.158
 Max camber    =     0.138432  at x =   0.469

 Maximum panel corner angle = 13.951   at  i,x,y  = 103   0.0001  -0.0014

.GDES   c>  
 Buffer airfoil is not identical to current airfoil

 XFOIL   c>  
 Blunt trailing edge.  Gap =  0.00028

 Paneling parameters used...
   Number of panel nodes       160
   Panel bunching parameter    1.000
   TE/LE panel density ratio   0.150
   Refined-area/LE panel density ratio    0.200
   Top    side refined area x/c limits  1.000 1.000
   Bottom side refined area x/c limits  1.000 1.000

 XFOIL   c>  
.OPERi   c>   Current iteration limit:          20

Enter new iteration limit   i>  
Enter new iteration limit   i>  
Enter new iteration limit   i>  
.OPERi   c>  
 M  =    0.0000
 Re =  0.3000E+06

.OPERv   c>  
 Sonic Cp =    -66.86      Sonic Q/Qinf =     9.138


.OPERv   c>  
 Polar  1 newly created for accumulation
 Airfoil archived with polar: 000288                                          

Enter  polar save filename  OR  <return> for no file   s>  
 New polar save file available

Enter  polar dump filename  OR  <return> for no file   s>  
 Polar dump file will NOT be written

 Polar accumulation enabled

.OPERva   c>   Calculating unit vorticity distributions ...
 Calculating wake trajectory ...
 Calculating source influence matrix ...

 Solving BL system ...

 Initializing BL ...
    side            1  ...
 MRCHUE: Inverse mode at  52     Hk =   4.202
 MRCHUE: Inverse mode at  53     Hk =   4.980
 MRCHUE: Inverse mode at  54     Hk =   5.741
 MRCHUE: Inverse mode at  55     Hk =   6.490
 MRCHUE: Inverse mode at  56     Hk =   7.231
 MRCHUE: Inverse mode at  57     Hk =   7.965
 MRCHUE: Inverse mode at  58     Hk =   8.694
 MRCHUE: Inverse mode at  59     Hk =   7.882
 MRCHUE: Inverse mode at  60     Hk =   4.969
 MRCHUE: Inverse mode at  61     Hk =   3.279
 MRCHUE: Inverse mode at  85     Hk =   2.500
    side            2  ...
 MRCHUE: Inverse mode at  24     Hk =   3.939
 MRCHUE: Inverse mode at  25     Hk =   4.761
 MRCHUE: Inverse mode at  26     Hk =   5.604
 MRCHUE: Inverse mode at  27     Hk =   6.471
 MRCHUE: Inverse mode at  28     Hk =   7.359
 MRCHUE: Inverse mode at  29     Hk =   8.258
 MRCHUE: Inverse mode at  30     Hk =   9.155
 MRCHUE: Inverse mode at  31     Hk =   9.653
 MRCHUE: Inverse mode at  32     Hk =   5.598
 MRCHUE: Inverse mode at  33     Hk =   3.863
 MRCHUE: Inverse mode at  34     Hk =   2.715
 MRCHUE: Inverse mode at  35     Hk =   2.500
 MRCHUE: Inverse mode at  79     Hk =   2.280

 Side 1  free  transition at x/c =  0.5522   59
 Side 2  free  transition at x/c =  0.2121   31

   1   rms: 0.1058E+01   max: 0.8361E+01   T at   31  2   RLX: 0.090
       a =  2.000      CL =  1.8847
      Cm = -0.3465     CD =  0.02099   =>   CDf =  0.00785    CDp =  0.01314

 Side 1  free  transition at x/c =  0.5540   59
 Side 2  free  transition at x/c =  0.1976   31

   2   rms: 0.3088E+00   max: -.1150E+01   D at   42  2   RLX: 0.435
       a =  2.000      CL =  1.8380
      Cm = -0.3371     CD =  0.02049   =>   CDf =  0.00752    CDp =  0.01297

 Side 1  free  transition at x/c =  0.5651   60
 Side 2  free  transition at x/c =  0.1982   31

   3   rms: 0.2155E+00   max: -.8928E+00   D at   40  2   RLX: 0.560
       a =  2.000      CL =  1.7948
      Cm = -0.3289     CD =  0.01731   =>   CDf =  0.00760    CDp =  0.00970

 Side 1  free  transition at x/c =  0.5710   59
 Side 2  free  transition at x/c =  0.1958   32

   4   rms: 0.8084E-01   max: 0.4774E+00   T at   32  2
       a =  2.000      CL =  1.7504
      Cm = -0.3189     CD =  0.01821   =>   CDf =  0.00745    CDp =  0.01076

 MRCHDU: Convergence failed at  32  side 2    Res =  0.9000E+01
 MRCHDU: Convergence failed at  33  side 2    Res =  0.1388E+02
 MRCHDU: Convergence failed at  34  side 2    Res =  0.3609E+02
 MRCHDU: Convergence failed at  35  side 2    Res =  0.1771E+03
 MRCHDU: Convergence failed at  36  side 2    Res =  0.5609E+02
 MRCHDU: Convergence failed at  37  side 2    Res =  0.5817E+02
 MRCHDU: Convergence failed at  38  side 2    Res =  0.4770E+02
 MRCHDU: Convergence failed at  39  side 2    Res =  0.4538E+02
 MRCHDU: Convergence failed at  40  side 2    Res =  0.5711E+02
 MRCHDU: Convergence failed at  41  side 2    Res =  0.1047E+03
 MRCHDU: Convergence failed at  42  side 2    Res =  0.1011E+03
 MRCHDU: Convergence failed at  43  side 2    Res =  0.1433E+03
 MRCHDU: Convergence failed at  44  side 2    Res =  0.5359E+03
 MRCHDU: Convergence failed at  45  side 2    Res =  0.5564E+02
 MRCHDU: Convergence failed at  46  side 2    Res =  0.8448E+02
 MRCHDU: Convergence failed at  47  side 2    Res =  0.5594E+02
 MRCHDU: Convergence failed at  48  side 2    Res =  0.4696E+02
 MRCHDU: Convergence failed at  49  side 2    Res =  0.5954E+02
 MRCHDU: Convergence failed at  50  side 2    Res =  0.8045E+02
 MRCHDU: Convergence failed at  51  side 2    Res =  0.8035E+02
 MRCHDU: Convergence failed at  52  side 2    Res =  0.6537E+02
 MRCHDU: Convergence failed at  53  side 2    Res =  0.4981E+02
 MRCHDU: Convergence failed at  54  side 2    Res =  0.6150E+02
 MRCHDU: Convergence failed at  55  side 2    Res =  0.6436E+02
 MRCHDU: Convergence failed at  56  side 2    Res =  0.9078E+03
 MRCHDU: Convergence failed at  57  side 2    Res =  0.9772E+02
 MRCHDU: Convergence failed at  58  side 2    Res =  0.5129E+02
 MRCHDU: Convergence failed at  59  side 2    Res =  0.3490E+02
 MRCHDU: Convergence failed at  60  side 2    Res =  0.1635E+04
 MRCHDU: Convergence failed at  61  side 2    Res =  0.1314E+03
 MRCHDU: Convergence failed at  62  side 2    Res =  0.1529E+03
 MRCHDU: Convergence failed at  63  side 2    Res =  0.7627E+03
 MRCHDU: Convergence failed at  64  side 2    Res =  0.2047E+03
 MRCHDU: Convergence failed at  65  side 2    Res =  0.9796E+02
 MRCHDU: Convergence failed at  66  side 2    Res =  0.6292E+02
 MRCHDU: Convergence failed at  67  side 2    Res =  0.4609E+02
 MRCHDU: Convergence failed at  68  side 2    Res =  0.3666E+02
 MRCHDU: Convergence failed at  69  side 2    Res =  0.3238E+02
 MRCHDU: Convergence failed at  70  side 2    Res =  0.2859E+02
 MRCHDU: Convergence failed at  71  side 2    Res =  0.2754E+02
 MRCHDU: Convergence failed at  72  side 2    Res =  0.2757E+02
 MRCHDU: Convergence failed at  73  side 2    Res =  0.4255E+02
 MRCHDU: Convergence failed at  74  side 2    Res =  0.1726E+02
 Side 1  free  transition at x/c =  0.5783   60
 Side 2  free  transition at x/c =  0.1896   31

   5   rms: 0.6645E+00   max: 0.4828E+01   T at   31  2   RLX: 0.247
       a =  2.000      CL =  1.5493
      Cm = -0.2600     CD =  0.01748   =>   CDf =  0.00592    CDp =  0.01156

 MRCHDU: Convergence failed at  75  side 2    Res =  0.8665E-01
 MRCHDU: Convergence failed at  76  side 2    Res =  0.2299E-03
 MRCHDU: Convergence failed at  77  side 2    Res =  0.9280E-03
 MRCHDU: Convergence failed at  78  side 2    Res =  0.1811E-02
 Side 1  free  transition at x/c =  0.5788   60
 Side 2  free  transition at x/c =  0.1727   30

   6   rms: 0.2349E+00   max: -.9742E+00   D at   75  2   RLX: 0.513
       a =  2.000      CL =  1.7109
      Cm = -0.3084     CD =  0.02364   =>   CDf =  0.00595    CDp =  0.01769

 MRCHDU: Convergence failed at  75  side 2    Res =  0.9204E-01
 MRCHDU: Convergence failed at  78  side 2    Res =  0.3182E-02
 Side 1  free  transition at x/c =  0.5783   60
 Side 2  free  transition at x/c =  0.1726   30

   7   rms: 0.3328E+00   max: -.1964E+01   T at   30  2   RLX: 0.255
       a =  2.000      CL =  1.7515
      Cm = -0.3195     CD =  0.02263   =>   CDf =  0.00602    CDp =  0.01662

 MRCHDU: Convergence failed at  75  side 2    Res =  0.1380E+00
 MRCHDU: Convergence failed at  76  side 2    Res =  0.2147E+00
 MRCHDU: Convergence failed at  77  side 2    Res =  0.3091E+00
 MRCHDU: Convergence failed at  78  side 2    Res =  0.6515E+00
 Side 1  free  transition at x/c =  0.5779   60
 Side 2  free  transition at x/c =  0.1828   31

   8   rms: 0.7311E+00   max: -.2581E+01   D at   63  2   RLX: 0.194
       a =  2.000      CL =  1.6902
      Cm = -0.3158     CD =  0.02973   =>   CDf =  0.00591    CDp =  0.02382

 Side 1  free  transition at x/c =  0.5791   60
 Side 2  free  transition at x/c =  0.1817   31

   9   rms: 0.8506E+00   max: -.3980E+01   D at   63  2   RLX: 0.126
       a =  2.000      CL =  1.6610
      Cm = -0.3095     CD =  0.02704   =>   CDf =  0.00583    CDp =  0.02121

 MRCHDU: Convergence failed at  63  side 2    Res =  0.1013E+00
 MRCHDU: Convergence failed at  64  side 2    Res =  0.6853E+00
 MRCHDU: Convergence failed at  65  side 2    Res =  0.5644E+00
 MRCHDU: Convergence failed at  66  side 2    Res =  0.5588E+00
 MRCHDU: Convergence failed at  67  side 2    Res =  0.5520E+00
 MRCHDU: Convergence failed at  68  side 2    Res =  0.5444E+00
 MRCHDU: Convergence failed at  69  side 2    Res =  0.5359E+00
 MRCHDU: Convergence failed at  70  side 2    Res =  0.5263E+00
 MRCHDU: Convergence failed at  71  side 2    Res =  0.5155E+00
 MRCHDU: Convergence failed at  72  side 2    Res =  0.5038E+00
 MRCHDU: Convergence failed at  73  side 2    Res =  0.4914E+00
 MRCHDU: Convergence failed at  74  side 2    Res =  0.4788E+00
 MRCHDU: Convergence failed at  75  side 2    Res =  0.4668E+00
 MRCHDU: Convergence failed at  76  side 2    Res =  0.4560E+00
 MRCHDU: Convergence failed at  77  side 2    Res =  0.4465E+00
 MRCHDU: Convergence failed at  78  side 2    Res =  0.4443E+00
 Side 1  free  transition at x/c =  0.5797   60
 Side 2  free  transition at x/c =  0.1850   31

  10   rms: 0.3682E+02   max: 0.1424E+03   D at   45  2   RLX: 0.011
       a =  2.000      CL =  1.8166
      Cm = -0.3552     CD =  0.06341   =>   CDf =  0.00570    CDp =  0.05772

 Side 1  free  transition at x/c =  0.5794   60
 Side 2  free  transition at x/c =  0.1798   31

  11   rms: 0.1568E+01   max: -.7777E+01   D at   78  2   RLX: 0.064
       a =  2.000      CL =  1.8280
      Cm = -0.3654     CD =  0.03518   =>   CDf =  0.00588    CDp =  0.02930

 Side 1  free  transition at x/c =  0.5797   60
 Side 2  free  transition at x/c =  0.1845   31

  12   rms: 0.1307E+01   max: -.7192E+01   D at   72  2   RLX: 0.070
       a =  2.000      CL =  1.8293
      Cm = -0.3667     CD =  0.02989   =>   CDf =  0.00596    CDp =  0.02393

[...]

   5   rms: 0.1030E-02   max: 0.1026E-01   D at   33  2
       a =  4.000      CL =  1.9502
      Cm = -0.3155     CD =  0.02004   =>   CDf =  0.00749    CDp =  0.01254

 Side 1  free  transition at x/c =  0.5414   60
 Side 2  free  transition at x/c =  0.2438   32

   6   rms: 0.6759E-05   max: 0.7199E-04   D at   33  2
       a =  4.000      CL =  1.9502
      Cm = -0.3155     CD =  0.02004   =>   CDf =  0.00749    CDp =  0.01254

 Point added to stored polar  1
 Point written to save file  000288M0.1.log                                  
 Dump file unspecified or not available
 Calculating wake trajectory ...
 Calculating source influence matrix ...

 Solving BL system ...

 Side 1  free  transition at x/c =  0.5414   60
 Side 2  free  transition at x/c =  0.2438   32

   1   rms: 0.1728E+00   max: -.1386E+01   T at   32  2   RLX: 0.361
       a =  5.000      CL =  1.9914
      Cm = -0.3159     CD =  0.02046   =>   CDf =  0.00724    CDp =  0.01322

 Side 1  free  transition at x/c =  0.5361   60
 Side 2  free  transition at x/c =  0.2592   32

   2   rms: 0.9449E-01   max: 0.5360E+00   D at   32  2
       a =  5.000      CL =  2.0313
      Cm = -0.3109     CD =  0.02147   =>   CDf =  0.00749    CDp =  0.01398

 Side 1  free  transition at x/c =  0.5206   59
 Side 2  free  transition at x/c =  0.2752   33

   3   rms: 0.3684E-01   max: -.2531E+00   D at   60  1
       a =  5.000      CL =  2.0481
      Cm = -0.3138     CD =  0.02124   =>   CDf =  0.00755    CDp =  0.01368

 Side 1  free  transition at x/c =  0.5233   60
 Side 2  free  transition at x/c =  0.2773   33

   4   rms: 0.5957E-02   max: 0.4256E-01   D at   60  1
       a =  5.000      CL =  2.0436
      Cm = -0.3130     CD =  0.02130   =>   CDf =  0.00751    CDp =  0.01379

 Side 1  free  transition at x/c =  0.5229   60
 Side 2  free  transition at x/c =  0.2768   33

   5   rms: 0.3149E-03   max: 0.2346E-02   D at   60  1
       a =  5.000      CL =  2.0435
      Cm = -0.3130     CD =  0.02129   =>   CDf =  0.00748    CDp =  0.01382

 Side 1  free  transition at x/c =  0.5229   60
 Side 2  free  transition at x/c =  0.2768   33

   6   rms: 0.9632E-05   max: 0.3988E-04   T at   33  2
       a =  5.000      CL =  2.0435
      Cm = -0.3130     CD =  0.02129   =>   CDf =  0.00748    CDp =  0.01382

 Point added to stored polar  1
 Point written to save file  000288M0.1.log                                  
 Dump file unspecified or not available
 Calculating wake trajectory ...
 Calculating source influence matrix ...

 Solving BL system ...

 Side 1  free  transition at x/c =  0.5229   60
 Side 2  free  transition at x/c =  0.2768   33

   1   rms: 0.1723E+00   max: -.1281E+01   T at   33  2   RLX: 0.390
       a =  6.000      CL =  2.0899
      Cm = -0.3139     CD =  0.02181   =>   CDf =  0.00720    CDp =  0.01462

 Side 1  free  transition at x/c =  0.5167   60
 Side 2  free  transition at x/c =  0.2927   33

   2   rms: 0.8602E-01   max: -.5444E+00   T at   33  2   RLX: 0.918
       a =  6.000      CL =  2.1134
      Cm = -0.3075     CD =  0.02287   =>   CDf =  0.00743    CDp =  0.01544

 Side 1  free  transition at x/c =  0.5031   59
 Side 2  free  transition at x/c =  0.3064   34

   3   rms: 0.6581E-01   max: -.3576E+00   T at   34  2
       a =  6.000      CL =  2.1253
      Cm = -0.3085     CD =  0.02280   =>   CDf =  0.00747    CDp =  0.01533

 Side 1  free  transition at x/c =  0.5041   59
 Side 2  free  transition at x/c =  0.3133   34

   4   rms: 0.1576E-01   max: -.1106E+00   D at   34  2
       a =  6.000      CL =  2.1256
      Cm = -0.3085     CD =  0.02288   =>   CDf =  0.00746    CDp =  0.01543

 Side 1  free  transition at x/c =  0.5041   59
 Side 2  free  transition at x/c =  0.3125   34

   5   rms: 0.3157E-03   max: 0.1860E-02   D at   60  1
       a =  6.000      CL =  2.1259
      Cm = -0.3086     CD =  0.02288   =>   CDf =  0.00741    CDp =  0.01547

 Side 1  free  transition at x/c =  0.5041   59
 Side 2  free  transition at x/c =  0.3125   34

   6   rms: 0.1517E-04   max: 0.5954E-04   T at   34  2
       a =  6.000      CL =  2.1259
      Cm = -0.3086     CD =  0.02288   =>   CDf =  0.00741    CDp =  0.01547

 Point added to stored polar  1
 Point written to save file  000288M0.1.log                                  
 Dump file unspecified or not available
 Calculating wake trajectory ...
 Calculating source influence matrix ...

 Solving BL system ...

 Side 1  free  transition at x/c =  0.5041   59
 Side 2  free  transition at x/c =  0.3125   34

   1   rms: 0.1363E+00   max: -.8127E+00   T at   34  2   RLX: 0.615
       a =  7.000      CL =  2.1411
      Cm = -0.2997     CD =  0.02453   =>   CDf =  0.00710    CDp =  0.01742

 Side 1  free  transition at x/c =  0.4906   60
 Side 2  free  transition at x/c =  0.3341   34

   2   rms: 0.6375E-01   max: -.3841E+00   T at   34  2
       a =  7.000      CL =  2.1823
      Cm = -0.3000     CD =  0.02518   =>   CDf =  0.00727    CDp =  0.01791

 Side 1  free  transition at x/c =  0.4858   59
 Side 2  free  transition at x/c =  0.3511   35

   3   rms: 0.2222E-01   max: 0.2372E+00   D at   35  2
       a =  7.000      CL =  2.1838
      Cm = -0.3002     CD =  0.02516   =>   CDf =  0.00724    CDp =  0.01792

 Side 1  free  transition at x/c =  0.4852   59
 Side 2  free  transition at x/c =  0.3507   35

   4   rms: 0.2147E-02   max: 0.2771E-01   D at   36  2
       a =  7.000      CL =  2.1840
      Cm = -0.3003     CD =  0.02515   =>   CDf =  0.00722    CDp =  0.01793

 Side 1  free  transition at x/c =  0.4852   59
 Side 2  free  transition at x/c =  0.3503   35

   5   rms: 0.1144E-04   max: 0.1807E-03   D at   36  2
       a =  7.000      CL =  2.1840
      Cm = -0.3003     CD =  0.02515   =>   CDf =  0.00722    CDp =  0.01793

 Point added to stored polar  1
 Point written to save file  000288M0.1.log                                  
 Dump file unspecified or not available
 Calculating wake trajectory ...
 Calculating source influence matrix ...

 Solving BL system ...

 Side 1  free  transition at x/c =  0.4852   59
 Side 2  free  transition at x/c =  0.3503   35

   1   rms: 0.1376E+00   max: -.8270E+00   T at   35  2   RLX: 0.605
       a =  8.000      CL =  2.1949
      Cm = -0.2917     CD =  0.02747   =>   CDf =  0.00689    CDp =  0.02058

 Side 1  free  transition at x/c =  0.4715   60
 Side 2  free  transition at x/c =  0.3771   36

   2   rms: 0.7892E-01   max: 0.6756E+00   D at   36  2
       a =  8.000      CL =  2.2417
      Cm = -0.2928     CD =  0.02792   =>   CDf =  0.00714    CDp =  0.02078

 Side 1  free  transition at x/c =  0.4666   59
 Side 2  free  transition at x/c =  0.3910   37

   3   rms: 0.3788E-01   max: -.3332E+00   D at   38  2
       a =  8.000      CL =  2.2338
      Cm = -0.2917     CD =  0.02832   =>   CDf =  0.00705    CDp =  0.02127

 Side 1  free  transition at x/c =  0.4655   59
 Side 2  free  transition at x/c =  0.3949   37

   4   rms: 0.1223E-02   max: -.9593E-02   D at   37  2
       a =  8.000      CL =  2.2343
      Cm = -0.2917     CD =  0.02827   =>   CDf =  0.00698    CDp =  0.02129

 Side 1  free  transition at x/c =  0.4655   59
 Side 2  free  transition at x/c =  0.3946   37

   5   rms: 0.3153E-04   max: -.2066E-03   D at   37  2
       a =  8.000      CL =  2.2343
      Cm = -0.2917     CD =  0.02827   =>   CDf =  0.00698    CDp =  0.02129

 Point added to stored polar  1
 Point written to save file  000288M0.1.log                                  
 Dump file unspecified or not available
 Calculating wake trajectory ...
 Calculating source influence matrix ...

 Solving BL system ...

 Side 1  free  transition at x/c =  0.4655   59
 Side 2  free  transition at x/c =  0.3946   37

   1   rms: 0.1451E+00   max: -.9452E+00   T at   37  2   RLX: 0.529
       a =  9.000      CL =  2.2409
      Cm = -0.2846     CD =  0.03091   =>   CDf =  0.00662    CDp =  0.02430

 Side 1  free  transition at x/c =  0.4470   59
 Side 2  free  transition at x/c =  0.4164   37

   2   rms: 0.7288E-01   max: -.4286E+00   D at   60  1
       a =  9.000      CL =  2.2259
      Cm = -0.2757     CD =  0.03421   =>   CDf =  0.00703    CDp =  0.02718

 Side 1  free  transition at x/c =  0.4378   59
 Side 2  free  transition at x/c =  0.4375   38

   3   rms: 0.3536E-01   max: -.1649E+00   D at   84  1
       a =  9.000      CL =  2.2498
      Cm = -0.2794     CD =  0.03348   =>   CDf =  0.00676    CDp =  0.02672

 Side 1  free  transition at x/c =  0.4361   59
 Side 2  free  transition at x/c =  0.4470   39

   4   rms: 0.6489E-02   max: -.7698E-01   D at   38  2
       a =  9.000      CL =  2.2527
      Cm = -0.2798     CD =  0.03341   =>   CDf =  0.00681    CDp =  0.02660

 Side 1  free  transition at x/c =  0.4355   59
 Side 2  free  transition at x/c =  0.4480   39

   5   rms: 0.2361E-03   max: 0.2082E-02   D at   39  2
       a =  9.000      CL =  2.2528
      Cm = -0.2798     CD =  0.03342   =>   CDf =  0.00684    CDp =  0.02658

 Side 1  free  transition at x/c =  0.4355   59
 Side 2  free  transition at x/c =  0.4481   39

   6   rms: 0.6641E-05   max: -.3939E-04   D at   82  2
       a =  9.000      CL =  2.2528
      Cm = -0.2798     CD =  0.03342   =>   CDf =  0.00684    CDp =  0.02658

 Point added to stored polar  1
 Point written to save file  000288M0.1.log                                  
 Dump file unspecified or not available
 Calculating wake trajectory ...
 Calculating source influence matrix ...

 Solving BL system ...

 Side 1  free  transition at x/c =  0.4355   59
 Side 2  free  transition at x/c =  0.4481   39

   1   rms: 0.1737E+00   max: -.1199E+01   T at   39  2   RLX: 0.417
       a = 10.000      CL =  2.2756
      Cm = -0.2770     CD =  0.03496   =>   CDf =  0.00645    CDp =  0.02851

 Side 1  free  transition at x/c =  0.4289   59
 Side 2  free  transition at x/c =  0.4802   40

   2   rms: 0.1241E+00   max: -.9794E+00   C at   40  2   RLX: 0.511
       a = 10.000      CL =  2.2752
      Cm = -0.2745     CD =  0.03748   =>   CDf =  0.00666    CDp =  0.03083

 Side 1  free  transition at x/c =  0.4179   59
 Side 2  free  transition at x/c =  0.5006   41

   3   rms: 0.8209E-01   max: -.7347E+00   T at   41  2   RLX: 0.681
       a = 10.000      CL =  2.2830
      Cm = -0.2722     CD =  0.03854   =>   CDf =  0.00668    CDp =  0.03186

 Side 1  free  transition at x/c =  0.4131   58
 Side 2  free  transition at x/c =  0.5415   43

   4   rms: 0.4919E-01   max: -.4030E+00   D at   43  2
       a = 10.000      CL =  2.2739
      Cm = -0.2704     CD =  0.04004   =>   CDf =  0.00661    CDp =  0.03342

 Side 1  free  transition at x/c =  0.4099   58
 Side 2 forced transition at x/c =  1.0001   70

   5   rms: 0.2592E-01   max: 0.4258E+00   D at   43  2
       a = 10.000      CL =  2.2729
      Cm = -0.2702     CD =  0.03967   =>   CDf =  0.00625    CDp =  0.03342

 Side 1  free  transition at x/c =  0.4102   58
 Side 2 forced transition at x/c =  1.0001   70

   6   rms: 0.5234E-02   max: 0.4061E-01   D at   42  2
       a = 10.000      CL =  2.2728
      Cm = -0.2701     CD =  0.03967   =>   CDf =  0.00624    CDp =  0.03342

 Side 1  free  transition at x/c =  0.4102   58
 Side 2 forced transition at x/c =  1.0001   70

   7   rms: 0.2417E-03   max: 0.1815E-02   D at   41  2
       a = 10.000      CL =  2.2728
      Cm = -0.2701     CD =  0.03967   =>   CDf =  0.00624    CDp =  0.03343

 Side 1  free  transition at x/c =  0.4102   58
 Side 2 forced transition at x/c =  1.0001   70

   8   rms: 0.3781E-05   max: -.3036E-04   D at   84  2
       a = 10.000      CL =  2.2728
      Cm = -0.2701     CD =  0.03967   =>   CDf =  0.00624    CDp =  0.03343

 Point added to stored polar  1
 Point written to save file  000288M0.1.log                                  
 Dump file unspecified or not available
 Calculating wake trajectory ...
 Calculating source influence matrix ...

 Solving BL system ...

 Side 1  free  transition at x/c =  0.4102   58
 Side 2 forced transition at x/c =  1.0001   70

   1   rms: 0.1890E+00   max: -.5682E+00   n at   50  2   RLX: 0.731
       a = 11.000      CL =  2.2776
      Cm = -0.2630     CD =  0.04604   =>   CDf =  0.00583    CDp =  0.04021

 Side 1  free  transition at x/c =  0.3839   58
 Side 2 forced transition at x/c =  1.0001   69

   2   rms: 0.4660E-01   max: -.4687E+00   D at   58  1
       a = 11.000      CL =  2.2737
      Cm = -0.2600     CD =  0.04877   =>   CDf =  0.00638    CDp =  0.04239

 Side 1  free  transition at x/c =  0.3818   57
 Side 2 forced transition at x/c =  1.0001   69

   3   rms: 0.7861E-02   max: -.4256E-01   D at   80  1
       a = 11.000      CL =  2.2775
      Cm = -0.2605     CD =  0.04858   =>   CDf =  0.00619    CDp =  0.04238

 Side 1  free  transition at x/c =  0.3798   57
 Side 2 forced transition at x/c =  1.0001   69

   4   rms: 0.5859E-03   max: -.3027E-02   D at   81  2
       a = 11.000      CL =  2.2779
      Cm = -0.2605     CD =  0.04860   =>   CDf =  0.00620    CDp =  0.04240

 Side 1  free  transition at x/c =  0.3798   57
 Side 2 forced transition at x/c =  1.0001   69

   5   rms: 0.3077E-04   max: -.1897E-03   D at   82  2
       a = 11.000      CL =  2.2779
      Cm = -0.2605     CD =  0.04860   =>   CDf =  0.00620    CDp =  0.04240

 Point added to stored polar  1
 Point written to save file  000288M0.1.log                                  
 Dump file unspecified or not available
 Calculating wake trajectory ...
 Calculating source influence matrix ...

 Solving BL system ...

 Side 1  free  transition at x/c =  0.3798   57
 Side 2 forced transition at x/c =  1.0001   69

   1   rms: 0.1339E+00   max: 0.4567E+00   D at   77  1   RLX: 0.635
       a = 12.000      CL =  2.2857
      Cm = -0.2560     CD =  0.05495   =>   CDf =  0.00622    CDp =  0.04874

 Side 1  free  transition at x/c =  0.3549   56
 Side 2 forced transition at x/c =  1.0001   69

   2   rms: 0.5232E-01   max: -.3569E+00   D at   56  1
       a = 12.000      CL =  2.2697
      Cm = -0.2521     CD =  0.06066   =>   CDf =  0.00583    CDp =  0.05483

 Side 1  free  transition at x/c =  0.3486   57
 Side 2 forced transition at x/c =  1.0001   68

   3   rms: 0.5901E-02   max: -.4520E-01   D at   79  1
       a = 12.000      CL =  2.2716
      Cm = -0.2519     CD =  0.05987   =>   CDf =  0.00609    CDp =  0.05378

 Side 1  free  transition at x/c =  0.3478   56
 Side 2 forced transition at x/c =  1.0001   68

   4   rms: 0.1310E-02   max: -.1241E-01   D at    4  1
       a = 12.000      CL =  2.2720
      Cm = -0.2520     CD =  0.05994   =>   CDf =  0.00610    CDp =  0.05383

 Side 1  free  transition at x/c =  0.3477   56
 Side 2 forced transition at x/c =  1.0001   68

   5   rms: 0.1552E-04   max: 0.1111E-03   D at   84  2
       a = 12.000      CL =  2.2720
      Cm = -0.2520     CD =  0.05993   =>   CDf =  0.00610    CDp =  0.05384

 Point added to stored polar  1
 Point written to save file  000288M0.1.log                                  
 Dump file unspecified or not available
 Calculating wake trajectory ...
 Calculating source influence matrix ...

 Solving BL system ...

 Side 1  free  transition at x/c =  0.3477   56
 Side 2 forced transition at x/c =  1.0001   68

   1   rms: 0.1289E+00   max: 0.4958E+00   D at   75  1   RLX: 0.548
       a = 13.000      CL =  2.2752
      Cm = -0.2490     CD =  0.06674   =>   CDf =  0.00612    CDp =  0.06062

 Side 1  free  transition at x/c =  0.3268   55
 Side 2 forced transition at x/c =  1.0001   68

   2   rms: 0.5783E-01   max: 0.2833E+00   D at   75  1
       a = 13.000      CL =  2.2654
      Cm = -0.2455     CD =  0.07331   =>   CDf =  0.00611    CDp =  0.06719

 Side 1  free  transition at x/c =  0.3092   54
 Side 2 forced transition at x/c =  1.0001   68

   3   rms: 0.1393E-01   max: -.1181E+00   C at   54  1
       a = 13.000      CL =  2.2543
      Cm = -0.2446     CD =  0.07393   =>   CDf =  0.00605    CDp =  0.06787

 Side 1  free  transition at x/c =  0.3135   54
 Side 2 forced transition at x/c =  1.0001   68

   4   rms: 0.6336E-03   max: 0.5403E-02   D at   83  2
       a = 13.000      CL =  2.2541
      Cm = -0.2446     CD =  0.07380   =>   CDf =  0.00596    CDp =  0.06784

 Side 1  free  transition at x/c =  0.3134   54
 Side 2 forced transition at x/c =  1.0001   68

   5   rms: 0.3717E-04   max: -.1755E-03   D at   85  2
       a = 13.000      CL =  2.2541
      Cm = -0.2446     CD =  0.07380   =>   CDf =  0.00596    CDp =  0.06784

 Point added to stored polar  1
 Point written to save file  000288M0.1.log                                  
 Dump file unspecified or not available
 Calculating wake trajectory ...
 Calculating source influence matrix ...

 Solving BL system ...

 Side 1  free  transition at x/c =  0.3134   54
 Side 2 forced transition at x/c =  1.0001   68

   1   rms: 0.1285E+00   max: 0.5479E+00   D at   72  1   RLX: 0.474
       a = 14.000      CL =  2.2509
      Cm = -0.2424     CD =  0.08114   =>   CDf =  0.00550    CDp =  0.07564

 Side 1  free  transition at x/c =  0.2951   54
 Side 2 forced transition at x/c =  1.0001   67

   2   rms: 0.6386E-01   max: 0.3117E+00   D at   74  1
       a = 14.000      CL =  2.2421
      Cm = -0.2394     CD =  0.08900   =>   CDf =  0.00595    CDp =  0.08304

 Side 1  free  transition at x/c =  0.2739   53
 Side 2 forced transition at x/c =  1.0001   67

   3   rms: 0.1627E-01   max: -.1436E+00   C at   53  1
       a = 14.000      CL =  2.2297
      Cm = -0.2386     CD =  0.08946   =>   CDf =  0.00592    CDp =  0.08353

 Side 1  free  transition at x/c =  0.2788   53
 Side 2 forced transition at x/c =  1.0001   67

   4   rms: 0.1261E-02   max: 0.1247E-01   D at   72  1
       a = 14.000      CL =  2.2290
      Cm = -0.2385     CD =  0.08930   =>   CDf =  0.00582    CDp =  0.08349

 Side 1  free  transition at x/c =  0.2791   53
 Side 2 forced transition at x/c =  1.0001   67

   5   rms: 0.1781E-04   max: 0.2644E-03   D at   83  2
       a = 14.000      CL =  2.2289
      Cm = -0.2385     CD =  0.08930   =>   CDf =  0.00581    CDp =  0.08348

 Point added to stored polar  1
 Point written to save file  000288M0.1.log                                  
 Dump file unspecified or not available
 Calculating wake trajectory ...
 Calculating source influence matrix ...

 Solving BL system ...

 Side 1  free  transition at x/c =  0.2791   53
 Side 2 forced transition at x/c =  1.0001   67

   1   rms: 0.1267E+00   max: 0.586Got result {'DD': 0.0188, 'Dmin': 0.01823, 'LL': -1.8418}
Completed successfully in 2.84 seconds. [{'DD': 0.0188, 'Dmin': 0.01823, 'LL': -1.8418}]
0E+00   D at   71  1   RLX: 0.415
       a = 15.000      CL =  2.2212
      Cm = -0.2371     CD =  0.09688   =>   CDf =  0.00583    CDp =  0.09105

 Side 1  free  transition at x/c =  0.2571   52
 Side 2 forced transition at x/c =  1.0001   67

   2   rms: 0.7488E-01   max: 0.4409E+00   D at   71  1
       a = 15.000      CL =  2.1976
      Cm = -0.2347     CD =  0.10875   =>   CDf =  0.00540    CDp =  0.10335

 Side 1  free  transition at x/c =  0.2364   52
 Side 2 forced transition at x/c =  1.0001   66

   3   rms: 0.1359E-01   max: 0.1515E+00   D at   71  1
       a = 15.000      CL =  2.1901
      Cm = -0.2343     CD =  0.10773   =>   CDf =  0.00582    CDp =  0.10190

 Side 1  free  transition at x/c =  0.2391   52
 Side 2 forced transition at x/c =  1.0001   66

   4   rms: 0.1157E-02   max: -.1189E-01   D at   71  1
       a = 15.000      CL =  2.1903
      Cm = -0.2342     CD =  0.10732   =>   CDf =  0.00573    CDp =  0.10159

 Side 1  free  transition at x/c =  0.2391   52
 Side 2 forced transition at x/c =  1.0001   66

   5   rms: 0.5551E-04   max: -.2854E-03   D at   85  2
       a = 15.000      CL =  2.1904
      Cm = -0.2342     CD =  0.10733   =>   CDf =  0.00573    CDp =  0.10159

 Point added to stored polar  1
 Point written to save file  000288M0.1.log                                  
 Dump file unspecified or not available

.OPERva   c>  
 XFOIL   c>  
