Job launching after 0.34 seconds in submission.
Running python job.
Changed into dir /home/simonx/Documents/Udacity/Projects/capstone/PESM_NSGA2_CST_XFoil
Importing evaluationFunctionXFoil.py
Running evaluationFunctionXFoil.main()
0
1
2
0.04
resp: 
 ===================================================
  XFOIL Version 6.97
  Copyright (C) 2000   Mark Drela, Harold Youngren

  This software comes with ABSOLUTELY NO WARRANTY,
    subject to the GNU General Public License.

  Caveat computor
 ===================================================

 File  xfoil.def  not found

   QUIT    Exit program

  .OPER    Direct operating point(s)
  .MDES    Complex mapping design routine
  .QDES    Surface speed design routine
  .GDES    Geometry design routine

   SAVE f  Write airfoil to labeled coordinate file
   PSAV f  Write airfoil to plain coordinate file
   ISAV f  Write airfoil to ISES coordinate file
   MSAV f  Write airfoil to MSES coordinate file
   REVE    Reverse written-airfoil node ordering
   DELI i  Change written-airfoil file delimiters

   LOAD f  Read buffer airfoil from coordinate file
   NACA i  Set NACA 4,5-digit airfoil and buffer airfoil
   INTE    Set buffer airfoil by interpolating two airfoils
   NORM    Buffer airfoil normalization toggle
   HALF    Halve the number of points in buffer airfoil
   XYCM rr Change CM reference location, currently  0.25000 0.00000

   BEND    Display structural properties of current airfoil

   PCOP    Set current-airfoil panel nodes directly from buffer airfoil points
   PANE    Set current-airfoil panel nodes ( 160 ) based on curvature
  .PPAR    Show/change paneling

  .PLOP    Plotting options

   WDEF f  Write  current-settings file
   RDEF f  Reread current-settings file
   NAME s  Specify new airfoil name
   NINC    Increment name version number

   Z       Zoom    | (available in all menus)
   U       Unzoom  | 

 XFOIL   c>   ...............................................

  G raphics-enable flag:        T
  S ize of plot object          10.00"
  A spect ratio of plot object   0.5500
  P age dimensions              11.00 x  8.50"
  M argins from page edges       0.00",  0.00"
  F ont size (relative)          0.0150
  W indow/screen size fraction   0.8000
  B lowup input method:        Cursor    
  O rientation of plot:        Landscape 
  C olor PostScript output?     F

      Option, Value   (or <Return>)    c>   ...............................................

  G raphics-enable flag:        F
  S ize of plot object          10.00"
  A spect ratio of plot object   0.5500
  P age dimensions              11.00 x  8.50"
  M argins from page edges       0.00",  0.00"
  F ont size (relative)          0.0150
  W indow/screen size fraction   0.8000
  B lowup input method:        Cursor    
  O rientation of plot:        Landscape 
  C olor PostScript output?     F

      Option, Value   (or <Return>)    c>  
 XFOIL   c>  
 Labeled airfoil file.  Name:  000093                                          

 Number of input coordinate points: 200
 Clockwise ordering
 Max thickness =     0.177711  at x =   0.206
 Max camber    =     0.090013  at x =   0.438

  LE  x,y  =  -0.00003   0.00171  |   Chord =   0.99991
  TE  x,y  =   0.99988   0.00005  |

 Current airfoil nodes set from buffer airfoil nodes ( 200 )

 XFOIL   c>  
 You are working with the buffer airfoil

.GDES   c>  
  i       x        y      angle
   2   0.9990   0.0004   -0.048
   3   0.9978   0.0010    0.035
   4   0.9961   0.0017   -0.009
   5   0.9938   0.0026   -0.003
   6   0.9911   0.0038    0.022
   7   0.9880   0.0052   -0.017
   8   0.9843   0.0067    0.039
   9   0.9801   0.0085   -0.001
  10   0.9755   0.0105    0.036
  11   0.9704   0.0127    0.028
  12   0.9649   0.0150    0.031
  13   0.9589   0.0176    0.057
  14   0.9524   0.0203    0.058
  15   0.9455   0.0233    0.066
  16   0.9382   0.0264    0.090
  17   0.9304   0.0296    0.105
  18   0.9222   0.0331    0.110
  19   0.9135   0.0367    0.134
  20   0.9045   0.0404    0.153
  21   0.8951   0.0443    0.172
  22   0.8853   0.0483    0.196
  23   0.8751   0.0524    0.212
  24   0.8645   0.0566    0.231
  25   0.8536   0.0609    0.260
  26   0.8423   0.0653    0.286
  27   0.8307   0.0697    0.301
  28   0.8187   0.0742    0.329
  29   0.8065   0.0787    0.355
  30   0.7939   0.0833    0.380
  31   0.7810   0.0879    0.403
  32   0.7679   0.0924    0.419
  33   0.7545   0.0970    0.455
  34   0.7409   0.1015    0.469
  35   0.7270   0.1060    0.497
  36   0.7129   0.1104    0.515
  37   0.6986   0.1147    0.534
  38   0.6841   0.1189    0.558
  39   0.6694   0.1231    0.571
  40   0.6545   0.1271    0.595
  41   0.6395   0.1310    0.608
  42   0.6243   0.1348    0.621
  43   0.6091   0.1384    0.635
  44   0.5937   0.1419    0.653
  45   0.5782   0.1452    0.658
  46   0.5627   0.1483    0.674
  47   0.5471   0.1512    0.679
  48   0.5314   0.1540    0.690
  49   0.5157   0.1566    0.699
  50   0.5000   0.1590    0.707
  51   0.4843   0.1612    0.710
  52   0.4686   0.1632    0.729
  53   0.4529   0.1650    0.725
  54   0.4373   0.1665    0.744
  55   0.4218   0.1679    0.748
  56   0.4063   0.1691    0.764
  57   0.3909   0.1700    0.768
  58   0.3757   0.1707    0.793
  59   0.3605   0.1713    0.806
  60   0.3455   0.1716    0.821
  61   0.3306   0.1716    0.854
  62   0.3159   0.1715    0.871
  63   0.3014   0.1712    0.907
  64   0.2871   0.1706    0.938
  65   0.2730   0.1698    0.977
  66   0.2591   0.1688    1.020
  67   0.2455   0.1675    1.068
  68   0.2321   0.1660    1.123
  69   0.2190   0.1643    1.181
  70   0.2061   0.1624    1.244
  71   0.1935   0.1602    1.318
  72   0.1813   0.1578    1.392
  73   0.1693   0.1551    1.474
  74   0.1577   0.1522    1.565
  75   0.1464   0.1491    1.659
  76   0.1355   0.1457    1.760
  77   0.1249   0.1420    1.865
  78   0.1147   0.1381    1.974
  79   0.1049   0.1340    2.096
  80   0.0955   0.1296    2.202
  81   0.0865   0.1250    2.333
  82   0.0778   0.1201    2.454
  83   0.0696   0.1150    2.575
  84   0.0618   0.1096    2.692
  85   0.0545   0.1040    2.819
  86   0.0476   0.0982    2.938
  87   0.0411   0.0922    3.044
  88   0.0351   0.0860    3.144
  89   0.0296   0.0796    3.241
  90   0.0245   0.0730    3.334
  91   0.0199   0.0662    3.406
  92   0.0157   0.0592    3.488
  93   0.0120   0.0522    3.529
  94   0.0089   0.0450    3.599
  95   0.0062   0.0376    3.625
  96   0.0039   0.0302    3.658
  97   0.0022   0.0227    3.692
  98   0.0010   0.0152    3.699
  99   0.0002   0.0076    3.712
 100   0.0000   0.0000    7.501
 101   0.0002  -0.0025   10.968
 102   0.0010  -0.0050   10.172
 103   0.0022  -0.0074    9.115
 104   0.0039  -0.0098    7.950
 105   0.0062  -0.0121    6.879
 106   0.0089  -0.0143    5.961
 107   0.0120  -0.0164    5.123
 108   0.0157  -0.0184    4.486
 109   0.0199  -0.0202    3.916
 110   0.0245  -0.0219    3.457
 111   0.0296  -0.0233    3.057
 112   0.0351  -0.0247    2.722
 113   0.0411  -0.0258    2.427
 114   0.0476  -0.0267    2.180
 115   0.0545  -0.0274    1.955
 116   0.0618  -0.0279    1.755
 117   0.0696  -0.0282    1.581
 118   0.0778  -0.0283    1.400
 119   0.0865  -0.0282    1.266
 120   0.0955  -0.0279    1.122
 121   0.1049  -0.0274    0.997
 122   0.1147  -0.0267    0.879
 123   0.1249  -0.0258    0.765
 124   0.1355  -0.0247    0.667
 125   0.1464  -0.0235    0.570
 126   0.1577  -0.0221    0.482
 127   0.1693  -0.0206    0.387
 128   0.1813  -0.0189    0.319
 129   0.1935  -0.0171    0.234
 130   0.2061  -0.0153    0.170
 131   0.2190  -0.0133    0.102
 132   0.2321  -0.0113    0.041
 133   0.2455  -0.0093   -0.020
 134   0.2591  -0.0072   -0.071
 135   0.2730  -0.0051   -0.119
 136   0.2871  -0.0029   -0.171
 137   0.3014  -0.0008   -0.212
 138   0.3159   0.0012   -0.248
 139   0.3306   0.0033   -0.289
 140   0.3455   0.0053   -0.316
 141   0.3605   0.0072   -0.346
 142   0.3757   0.0090   -0.369
 143   0.3909   0.0108   -0.392
 144   0.4063   0.0125   -0.414
 145   0.4218   0.0140   -0.426
 146   0.4373   0.0155   -0.440
 147   0.4529   0.0168   -0.447
 148   0.4686   0.0181   -0.455
 149   0.4843   0.0192   -0.461
 150   0.5000   0.0201   -0.455
 151   0.5157   0.0210   -0.460
 152   0.5314   0.0217   -0.455
 153   0.5471   0.0223   -0.452
 154   0.5627   0.0228   -0.439
 155   0.5782   0.0231   -0.430
 156   0.5937   0.0233   -0.427
 157   0.6091   0.0235   -0.406
 158   0.6243   0.0235   -0.393
 159   0.6395   0.0234   -0.385
 160   0.6545   0.0232   -0.362
 161   0.6694   0.0229   -0.352
 162   0.6841   0.0225   -0.330
 163   0.6986   0.0221   -0.316
 164   0.7129   0.0215   -0.299
 165   0.7270   0.0209   -0.278
 166   0.7409   0.0203   -0.260
 167   0.7545   0.0196   -0.252
 168   0.7679   0.0188   -0.221
 169   0.7810   0.0180   -0.216
 170   0.7939   0.0172   -0.193
 171   0.8065   0.0164   -0.178
 172   0.8187   0.0155   -0.162
 173   0.8307   0.0147   -0.146
 174   0.8423   0.0138   -0.134
 175   0.8536   0.0129   -0.125
 176   0.8645   0.0120   -0.101
 177   0.8751   0.0112   -0.097
 178   0.8853   0.0103   -0.085
 179   0.8951   0.0095   -0.074
 180   0.9045   0.0087   -0.065
 181   0.9135   0.0079   -0.051
 182   0.9222   0.0071   -0.054
 183   0.9304   0.0064   -0.036
 184   0.9382   0.0057   -0.030
 185   0.9455   0.0050   -0.031
 186   0.9524   0.0044   -0.024
 187   0.9589   0.0038   -0.013
 188   0.9649   0.0032   -0.011
 189   0.9704   0.0027   -0.018
 190   0.9755   0.0023   -0.003
 191   0.9801   0.0018   -0.010
 192   0.9843   0.0015   -0.004
 193   0.9880   0.0011   -0.007
 194   0.9911   0.0008    0.021
 195   0.9938   0.0006   -0.023
 196   0.9961   0.0004   -0.010
 197   0.9978   0.0002    0.016
 198   0.9990   0.0001    0.036
 199   0.9998   0.0000   -0.070

 Maximum panel corner angle = 10.968   at  i,x,y  = 101   0.0002  -0.0025

 Enter corner angle criterion for refinement (deg):   5.484
 Enter type of spline parameter (1=uniform, 2=arclength):   1
 Enter refinement x limits:  -0.10000   1.10000
 Number of points added:           14
 Max thickness =     0.177659  at x =   0.219
 Max camber    =     0.091081  at x =   0.437

 Maximum panel corner angle =  7.449   at  i,x,y  = 103   0.0001  -0.0020

.GDES   c>  
 Buffer airfoil is not identical to current airfoil

 XFOIL   c>  
 Blunt trailing edge.  Gap =  0.00027

 Paneling parameters used...
   Number of panel nodes       160
   Panel bunching parameter    1.000
   TE/LE panel density ratio   0.150
   Refined-area/LE panel density ratio    0.200
   Top    side refined area x/c limits  1.000 1.000
   Bottom side refined area x/c limits  1.000 1.000

 XFOIL   c>  
Enter output filename   s>  
 XFOIL   c>  
.OPERi   c>   Current iteration limit:          20

Enter new iteration limit   i>  
Enter new iteration limit   i>  
Enter new iteration limit   i>  
.OPERi   c>  
 M  =    0.0000
 Re =  0.3000E+06

.OPERv   c>  
 Sonic Cp =   -420.65      Sonic Q/Qinf =    22.825


.OPERv   c>  
 Polar  1 newly created for accumulation
 Airfoil archived with polar: 000093                                          

Enter  polar save filename  OR  <return> for no file   s>  
 New polar save file available

Enter  polar dump filename  OR  <return> for no file   s>  
 Polar dump file will NOT be written

 Polar accumulation enabled

.OPERva   c>   Calculating unit vorticity distributions ...
 Calculating wake trajectory ...
 Calculating source influence matrix ...

 Solving BL system ...

 Initializing BL ...
    side            1  ...
 MRCHUE: Inverse mode at  55     Hk =   4.328
 MRCHUE: Inverse mode at  56     Hk =   5.157
 MRCHUE: Inverse mode at  57     Hk =   5.972
 MRCHUE: Inverse mode at  58     Hk =   6.775
 MRCHUE: Inverse mode at  59     Hk =   7.570
 MRCHUE: Inverse mode at  60     Hk =   7.777
 MRCHUE: Inverse mode at  61     Hk =   4.156
 MRCHUE: Inverse mode at  62     Hk =   2.500
 MRCHUE: Inverse mode at  87     Hk =   2.500
 MRCHUE: Inverse mode at  88     Hk =   2.500
 MRCHUE: Convergence failed at  89  side 1    Res =  0.1184E+02
    side            2  ...
 MRCHUE: Inverse mode at  34     Hk =   4.240
 MRCHUE: Inverse mode at  35     Hk =   5.080
 MRCHUE: Inverse mode at  36     Hk =   5.939
 MRCHUE: Inverse mode at  37     Hk =   6.812
 MRCHUE: Inverse mode at  38     Hk =   7.691
 MRCHUE: Inverse mode at  39     Hk =   8.562
 MRCHUE: Inverse mode at  40     Hk =   9.419
 MRCHUE: Inverse mode at  41     Hk =   5.727
 MRCHUE: Inverse mode at  42     Hk =   3.684
 MRCHUE: Inverse mode at  43     Hk =   2.500
 MRCHUE: Convergence failed at  73  side 2    Res =  0.6462E+01
 MRCHUE: Convergence failed at  75  side 2    Res =  0.5421E-01

 MRCHDU: Convergence failed at  89  side 1    Res =  0.1184E+02
 MRCHDU: Convergence failed at  75  side 2    Res =  0.7765E-01
 Side 1  free  transition at x/c =  0.4509   60
 Side 2  free  transition at x/c =  0.3063   41

   1   rms: 0.7242E+00   max: 0.3851E+01   D at   75  2   RLX: 0.302
       a =  2.000      CL =  1.3036
      Cm = -0.2036     CD =  0.00581   =>   CDf =  0.00899    CDp = -0.00318

 MRCHDU: Convergence failed at  61  side 1    Res =  0.1784E+01
 Side 1  free  transition at x/c =  0.4683   60
 Side 2  free  transition at x/c =  0.3055   42

   2   rms: 0.4055E+00   max: 0.1904E+01   D at   77  2   RLX: 0.403
       a =  2.000      CL =  1.2336
      Cm = -0.1899     CD =  0.00794   =>   CDf =  0.00854    CDp = -0.00061

 Side 1  free  transition at x/c =  0.4898   61
 Side 2  free  transition at x/c =  0.3036   41

   3   rms: 0.1982E+00   max: 0.9005E+00   D at   79  2   RLX: 0.677
       a =  2.000      CL =  1.1825
      Cm = -0.1787     CD =  0.01140   =>   CDf =  0.00854    CDp =  0.00286

 Side 1  free  transition at x/c =  0.5255   62
 Side 2  free  transition at x/c =  0.3011   42

   4   rms: 0.6387E-01   max: 0.3050E+00   D at   83  2
       a =  2.000      CL =  1.1699
      Cm = -0.1761     CD =  0.01470   =>   CDf =  0.00788    CDp =  0.00682

 Side 1  free  transition at x/c =  0.5405   63
 Side 2  free  transition at x/c =  0.2986   42

   5   rms: 0.1606E-01   max: 0.2018E+00   C at   63  1
       a =  2.000      CL =  1.1642
      Cm = -0.1751     CD =  0.01499   =>   CDf =  0.00742    CDp =  0.00757

 Side 1  free  transition at x/c =  0.5362   63
 Side 2  free  transition at x/c =  0.2970   42

   6   rms: 0.1438E-02   max: -.2079E-01   D at   65  1
       a =  2.000      CL =  1.1637
      Cm = -0.1750     CD =  0.01500   =>   CDf =  0.00749    CDp =  0.00751

 Side 1  free  transition at x/c =  0.5356   63
 Side 2  free  transition at x/c =  0.2970   42

   7   rms: 0.4965E-04   max: -.3209E-03   D at   87  1
       a =  2.000      CL =  1.1638
      Cm = -0.1750     CD =  0.01500   =>   CDf =  0.00750    CDp =  0.00750

 Point added to stored polar  1
 Point written to save file  000093M0.04.log                                 
 Dump file unspecified or not available
 Calculating wake trajectory ...
 Calculating source influence matrix ...

 Solving BL system ...

 Side 1  free  transition at x/c =  0.5356   63
 Side 2  free  transition at x/c =  0.2970   42

   1   rms: 0.1456E+00   max: -.9320E+00   T at   42  2   RLX: 0.536
       a =  3.000      CL =  1.2070
      Cm = -0.1719     CD =  0.01545   =>   CDf =  0.00733    CDp =  0.00812

 Side 1  free  transition at x/c =  0.5154   63
 Side 2  free  transition at x/c =  0.3255   42

   2   rms: 0.6954E-01   max: -.4837E+00   T at   42  2
       a =  3.000      CL =  1.2396
      Cm = -0.1684     CD =  0.01592   =>   CDf =  0.00745    CDp =  0.00846

 MRCHDU: Convergence failed at  43  side 2    Res =  0.2454E+01
 MRCHDU: Convergence failed at  44  side 2    Res =  0.1045E+02
 MRCHDU: Convergence failed at  45  side 2    Res =  0.1496E+02
 MRCHDU: Convergence failed at  46  side 2    Res =  0.9262E+01
 MRCHDU: Convergence failed at  47  side 2    Res =  0.9632E+01
 MRCHDU: Convergence failed at  48  side 2    Res =  0.1220E+02
 MRCHDU: Convergence failed at  49  side 2    Res =  0.1893E+02
 MRCHDU: Convergence failed at  50  side 2    Res =  0.4943E+02
 MRCHDU: Convergence failed at  51  side 2    Res =  0.8078E+02
 MRCHDU: Convergence failed at  52  side 2    Res =  0.2107E+02
 MRCHDU: Convergence failed at  53  side 2    Res =  0.1178E+02
 MRCHDU: Convergence failed at  54  side 2    Res =  0.7973E+01
 MRCHDU: Convergence failed at  55  side 2    Res =  0.5551E+01
 MRCHDU: Convergence failed at  56  side 2    Res =  0.4365E+01
 MRCHDU: Convergence failed at  57  side 2    Res =  0.3484E+01
 MRCHDU: Convergence failed at  58  side 2    Res =  0.2829E+01
 MRCHDU: Convergence failed at  59  side 2    Res =  0.2353E+01
 MRCHDU: Convergence failed at  60  side 2    Res =  0.1957E+01
 MRCHDU: Convergence failed at  61  side 2    Res =  0.1624E+01
 Side 1  free  transition at x/c =  0.4969   63
 Side 2  free  transition at x/c =  0.3558   43

   3   rms: 0.1945E+00   max: -.1148E+01   D at   59  2   RLX: 0.435
       a =  3.000      CL =  1.2193
      Cm = -0.1621     CD =  0.01541   =>   CDf =  0.00612    CDp =  0.00929

 Side 1  free  transition at x/c =  0.4963   63
 Side 2  free  transition at x/c =  0.3635   43

   4   rms: 0.3847E-01   max: 0.3292E+00   D at   45  2
       a =  3.000      CL =  1.2420
      Cm = -0.1692     CD =  0.01590   =>   CDf =  0.00766    CDp =  0.00824

 Side 1  free  transition at x/c =  0.4957   63
 Side 2  free  transition at x/c =  0.3542   43

   5   rms: 0.2222E-02   max: 0.2934E-01   D at   44  2
       a =  3.000      CL =  1.2423
      Cm = -0.1692     CD =  0.01593   =>   CDf =  0.00755    CDp =  0.00838

 Side 1  free  transition at x/c =  0.4956   63
 Side 2  free  transition at x/c =  0.3545   43

   6   rms: 0.4928E-04   max: -.8562E-03   D at   44  2
       a =  3.000      CL =  1.2423
      Cm = -0.1692     CD =  0.01593   =>   CDf =  0.00755    CDp =  0.00838

 Point added to stored polar  1
 Point written to save file  000093M0.04.log                                 
 Dump file unspecified or not available
 Calculating wake trajectory ...
 Calculating source influence matrix ...

 Solving BL system ...

 Side 1  free  transition at x/c =  0.4956   63
 Side 2  free  transition at x/c =  0.3545   43

   1   rms: 0.1643E+00   max: -.9847E+00   T at   43  2   RLX: 0.508
       a =  4.000      CL =  1.2822
      Cm = -0.1665     CD =  0.01657   =>   CDf =  0.00757    CDp =  0.00900

 Side 1  free  transition at x/c =  0.4765   62
 Side 2  free  transition at x/c =  0.3862   44

   2   rms: 0.7696E-01   max: -.5496E+00   T at   44  2   RLX: 0.910
       a =  4.000      CL =  1.3127
      Cm = -0.1634     CD =  0.01720   =>   CDf =  0.00742    CDp =  0.00977

 Side 1  free  transition at x/c =  0.4595   62
 Side 2  free  transition at x/c =  0.4303   45

   3   rms: 0.2889E-01   max: -.2796E+00   D at   45  2
       a =  4.000      CL =  1.3154
      Cm = -0.1632     CD =  0.01731   =>   CDf =  0.00761    CDp =  0.00970

 Side 1  free  transition at x/c =  0.4561   62
 Side 2  free  transition at x/c =  0.4571   47

   4   rms: 0.7364E-02   max: -.1397E+00   D at   46  2
       a =  4.000      CL =  1.3166
      Cm = -0.1635     CD =  0.01730   =>   CDf =  0.00749    CDp =  0.00981

 Side 1  free  transition at x/c =  0.4560   62
 Side 2  free  transition at x/c =  0.4541   46

   5   rms: 0.1595E-02   max: 0.2957E-01   C at   46  2
       a =  4.000      CL =  1.3166
      Cm = -0.1635     CD =  0.01730   =>   CDf =  0.00747    CDp =  0.00983

 Side 1  free  transition at x/c =  0.4560   62
 Side 2  free  transition at x/c =  0.4528   46

   6   rms: 0.2013E-04   max: -.3576E-03   C at   46  2
       a =  4.000      CL =  1.3166
      Cm = -0.1635     CD =  0.01730   =>   CDf =  0.00747    CDp =  0.00983

 Point added to stored polar  1
 Point written to save file  000093M0.04.log                                 
 Dump file unspecified or not available
 Calculating wake trajectory ...
 Calculating source influence matrix ...

 Solving BL system ...

 Side 1  free  transition at x/c =  0.4560   62
 Side 2  free  transition at x/c =  0.4528   46

   1   rms: 0.1825E+00   max: -.2093E+01   C at   46  2   RLX: 0.239
       a =  5.000      CL =  1.3333
      Cm = -0.1621     CD =  0.01774   =>   CDf =  0.00749    CDp =  0.01025

 Side 1  free  transition at x/c =  0.4481   61
 Side 2  free  transition at x/c =  0.4916   48

   2   rms: 0.2839E+00   max: -.5305E+01   C at   48  2   RLX: 0.094
       a =  5.000      CL =  1.3388
      Cm = -0.1617     CD =  0.01779   =>   CDf =  0.00742    CDp =  0.01037

 Side 1  free  transition at x/c =  0.4450   61
 Side 2  free  transition at x/c =  0.4990   49

   3   rms: 0.2105E+00   max: -.2961E+01   C at   49  2   RLX: 0.169
       a =  5.000      CL =  1.3480
      Cm = -0.1613     CD =  0.01796   =>   CDf =  0.00746    CDp =  0.01051

 Side 1  free  transition at x/c =  0.4400   61
 Side 2  free  transition at x/c =  0.5208   50

   4   rms: 0.2191E+00   max: -.3413E+01   C at   50  2   RLX: 0.147
       a =  5.000      CL =  1.3542
      Cm = -0.1610     CD =  0.01813   =>   CDf =  0.00743    CDp =  0.01070

 Side 1  free  transition at x/c =  0.4368   61
 Side 2  free  transition at x/c =  0.5406   51

   5   rms: 0.2180E+00   max: -.3502E+01   C at   51  2   RLX: 0.143
       a =  5.000      CL =  1.3595
      Cm = -0.1608     CD =  0.01827   =>   CDf =  0.00742    CDp =  0.01084

 Side 1  free  transition at x/c =  0.4344   61
 Side 2  free  transition at x/c =  0.5637   52

   6   rms: 0.2776E+00   max: -.4976E+01   C at   52  2   RLX: 0.100
       a =  5.000      CL =  1.3632
      Cm = -0.1608     CD =  0.01835   =>   CDf =  0.00739    CDp =  0.01096

 Side 1  free  transition at x/c =  0.4331   60
 Side 2  free  transition at x/c =  0.5823   52

   7   rms: 0.1594E+00   max: -.2896E+01   C at   52  2   RLX: 0.173
       a =  5.000      CL =  1.3685
      Cm = -0.1607     CD =  0.01843   =>   CDf =  0.00734    CDp =  0.01109

 Side 1  free  transition at x/c =  0.4306   60
 Side 2 forced transition at x/c =  1.0001   72

   8   rms: 0.1115E+00   max: -.7653E+00   n at   71  2   RLX: 0.653
       a =  5.000      CL =  1.3782
      Cm = -0.1583     CD =  0.01816   =>   CDf =  0.00648    CDp =  0.01168

 Side 1  free  transition at x/c =  0.4223   61
 Side 2 forced transition at x/c =  1.0001   71

   9   rms: 0.2252E-01   max: 0.3018E+00   T at    2  1
       a =  5.000      CL =  1.3808
      Cm = -0.1565     CD =  0.01847   =>   CDf =  0.00677    CDp =  0.01171

 Side 1  free  transition at x/c =  0.4191   61
 Side 2 forced transition at x/c =  1.0001   71

  10   rms: 0.1614E-02   max: 0.1917E-01   D at    4  1
       a =  5.000      CL =  1.3806
      Cm = -0.1564     CD =  0.01848   =>   CDf =  0.00679    CDp =  0.01168

 Side 1  free  transition at x/c =  0.4192   61
 Side 2 forced transition at x/c =  1.0001   71

  11   rms: 0.1283E-04   max: 0.8742E-04   D at    7  1
       a =  5.000      CL =  1.3806
      Cm = -0.1564     CD =  0.01848   =>   CDf =  0.00679    CDp =  0.01169

 Point added to stored polar  1
 Point written to save file  000093M0.04.log                                 
 Dump file unspecified or not available
 Calculating wake trajectory ...
 Calculating source influence matrix ...

 Solving BL system ...

 Side 1  free  transition at x/c =  0.4192   61
 Side 2 forced transition at x/c =  1.0001   71

   1   rms: 0.1481E+00   max: -.3236E+00   n at   54  2   RLX: 0.936
       a =  6.000      CL =  1.4403
      Cm = -0.1505     CD =  0.02096   =>   CDf =  0.00663    CDp =  0.01433

 Side 1  free  transition at x/c =  0.3908   60
 Side 2 forced transition at x/c =  1.0001   70

   2   rms: 0.3700E-01   max: 0.4298E+00   T at    2  1
       a =  6.000      CL =  1.4437
      Cm = -0.1503     CD =  0.02119   =>   CDf =  0.00709    CDp =  0.01411

 Side 1  free  transition at x/c =  0.3862   60
 Side 2 forced transition at x/c =  1.0001   70

   3   rms: 0.2219E-02   max: 0.2281E-01   D at    4  1
       a =  6.000      CL =  1.4444
      Cm = -0.1504     CD =  0.02112   =>   CDf =  0.00704    CDp =  0.01408

 Side 1  free  transition at x/c =  0.3858   60
 Side 2 forced transition at x/c =  1.0001   70

   4   rms: 0.1297E-04   max: 0.1541E-03   D at    8  1
       a =  6.000      CL =  1.4444
      Cm = -0.1504     CD =  0.02112   =>   CDf =  0.00705    CDp =  0.01407

 Point added to stored polar  1
 Point written to save file  000093M0.04.log                                 
 Dump file unspecified or not available
 Calculating wake trajectory ...
 Calculating source influence matrix ...

 Solving BL system ...

 Side 1  free  transition at x/c =  0.3858   60
 Side 2 forced transition at x/c =  1.0001   70

   1   rms: 0.1324E+00   max: 0.2465E+00   D at   79  2   RLX: 0.961
       a =  7.000      CL =  1.5033
      Cm = -0.1448     CD =  0.02400   =>   CDf =  0.00687    CDp =  0.01713

 Side 1  free  transition at x/c =  0.3588   59
 Side 2 forced transition at x/c =  1.0001   69

   2   rms: 0.2079E-01   max: 0.2956E+00   D at   60  1
       a =  7.000      CL =  1.5032
      Cm = -0.1445     CD =  0.02435   =>   CDf =  0.00736    CDp =  0.01700

 Side 1  free  transition at x/c =  0.3573   59
 Side 2 forced transition at x/c =  1.0001   69

   3   rms: 0.1314E-02   max: 0.1456E-01   C at   59  1
       a =  7.000      CL =  1.5040
      Cm = -0.1446     CD =  0.02427   =>   CDf =  0.00727    CDp =  0.01700

 Side 1  free  transition at x/c =  0.3566   59
 Side 2 forced transition at x/c =  1.0001   69

   4   rms: 0.3666E-04   max: -.2070E-03   C at   59  1
       a =  7.000      CL =  1.5040
      Cm = -0.1446     CD =  0.02427   =>   CDf =  0.00728    CDp =  0.01699

 Point added to stored polar  1
 Point written to save file  000093M0.04.log                                 
 Dump file unspecified or not available
 Calculating wake trajectory ...
 Calculating source influence matrix ...

 Solving BL system ...

 Side 1  free  transition at x/c =  0.3566   59
 Side 2 forced transition at x/c =  1.0001   69

   1   rms: 0.1250E+00   max: 0.2141E+00   D at   79  2   RLX: 0.862
       a =  8.000      CL =  1.5598
      Cm = -0.1407     CD =  0.02692   =>   CDf =  0.00730    CDp =  0.01962

 Side 1  free  transition at x/c =  0.3328   58
 Side 2 forced transition at x/c =  1.0001   69

   2   rms: 0.2140E-01   max: -.2672E+00   D at   58  1
       a =  8.000      CL =  1.5558
      Cm = -0.1387     CD =  0.02801   =>   CDf =  0.00724    CDp =  0.02077

 Side 1  free  transition at x/c =  0.3315   59
 Side 2 forced transition at x/c =  1.0001   68

   3   rms: 0.6868E-02   max: 0.4927E-01   D at    2  1
       a =  8.000      CL =  1.5603
      Cm = -0.1392     CD =  0.02783   =>   CDf =  0.00733    CDp =  0.02050

 Side 1  free  transition at x/c =  0.3307   59
 Side 2 forced transition at x/c =  1.0001   68

   4   rms: 0.2408E-03   max: -.2193E-02   D at    4  1
       a =  8.000      CL =  1.5604
      Cm = -0.1392     CD =  0.02784   =>   CDf =  0.00736    CDp =  0.02048

 Side 1  free  transition at x/c =  0.3307   59
 Side 2 forced transition at x/c =  1.0001   68

   5   rms: 0.5907E-05   max: -.2207E-04   D at   82  1
       a =  8.000      CL =  1.5604
      Cm = -0.1392     CD =  0.02784   =>   CDf =  0.00736    CDp =  0.02048

 Point added to stored polar  1
 Point written to save file  000093M0.04.log                                 
 Dump file unspecified or not available
 Calculating wake trajectory ...
 Calculating source influence matrix ...

 Solving BL system ...

 Side 1  free  transition at x/c =  0.3307   59
 Side 2 forced transition at x/c =  1.0001   68

   1   rms: 0.1235E+00   max: 0.2464E+00   D at   79  2   RLX: 0.762
       a =  9.000      CL =  1.6016
      Cm = -0.1353     CD =  0.03092   =>   CDf =  0.00738    CDp =  0.02354

 Side 1  free  transition at x/c =  0.3143   58
 Side 2 forced transition at x/c =  1.0001   68

   2   rms: 0.3224E-01   max: -.2819E+00   D at   58  1
       a =  9.000      CL =  1.6084
      Cm = -0.1337     CD =  0.03211   =>   CDf =  0.00723    CDp =  0.02489

 Side 1  free  transition at x/c =  0.3084   59
 Side 2 forced transition at x/c =  1.0001   67

   3   rms: 0.8979E-02   max: 0.8476E-01   D at    2  1
       a =  9.000      CL =  1.6120
      Cm = -0.1340     CD =  0.03194   =>   CDf =  0.00746    CDp =  0.02448

 Side 1  free  transition at x/c =  0.3082   59
 Side 2 forced transition at x/c =  1.0001   67

   4   rms: 0.3604E-03   max: -.2361E-02   D at    4  1
       a =  9.000      CL =  1.6122
      Cm = -0.1340     CD =  0.03196   =>   CDf =  0.00748    CDp =  0.02449

 Side 1  free  transition at x/c =  0.3082   59
 Side 2 forced transition at x/c =  1.0001   67

   5   rms: 0.3820E-05   max: 0.5387E-04   C at   67  2
       a =  9.000      CL =  1.6123
      Cm = -0.1340     CD =  0.03196   =>   CDf =  0.00748    CDp =  0.02449

 Point added to stored polar  1
 Point written to save file  000093M0.04.log                                 
 Dump file unspecified or not available
 Calculating wake trajectory ...
 Calculating source influence matrix ...

 Solving BL system ...

 Side 1  free  transition at x/c =  0.3082   59
 Side 2 forced transition at x/c =  1.0001   67

   1   rms: 0.1229E+00   max: -.4652E+00   D at   59  1   RLX: 0.687
       a = 10.000      CL =  1.6474
      Cm = -0.1305     CD =  0.03510   =>   CDf =  0.00750    CDp =  0.02761

 Side 1  free  transition at x/c =  0.2956   58
 Side 2 forced transition at x/c =  1.0001   67

   2   rms: 0.4366E-01   max: -.3410E+00   D at   58  1
       a = 10.000      CL =  1.6564
      Cm = -0.1289     CD =  0.03680   =>   CDf =  0.00723    CDp =  0.02957

 Side 1  free  transition at x/c =  0.2889   59
 Side 2 forced transition at x/c =  1.0001   66

   3   rms: 0.1153E-01   max: -.7610E-01   D at   84  1
       a = 10.000      CL =  1.6615
      Cm = -0.1292     CD =  0.03646   =>   CDf =  0.00753    CDp =  0.02893

 Side 1  free  transition at x/c =  0.2882   58
 Side 2 forced transition at x/c =  1.0001   66

   4   rms: 0.7136E-03   max: -.7127E-02   C at   58  1
       a = 10.000      CL =  1.6618
      Cm = -0.1292     CD =  0.03652   =>   CDf =  0.00757    CDp =  0.02895

 Side 1  free  transition at x/c =  0.2882   58
 Side 2 forced transition at x/c =  1.0001   66

   5   rms: 0.4201E-04   max: -.1697E-03   D at   81  1
       a = 10.000      CL =  1.6618
      Cm = -0.1292     CD =  0.03651   =>   CDf =  0.00756    CDp =  0.02895

 Point added to stored polar  1
 Point written to save file  000093M0.04.log                                 
 Dump file unspecified or not available
 Calculating wake trajectory ...
 Calculating source influence matrix ...

 Solving BL system ...

 Side 1  free  transition at x/c =  0.2882   58
 Side 2 forced transition at x/c =  1.0001   66

   1   rms: 0.1189E+00   max: -.4902E+00   C at   58  1   RLX: 0.622
       a = 11.000      CL =  1.6902
      Cm = -0.1268     CD =  0.03995   =>   CDf =  0.00758    CDp =  0.03237

 Side 1  free  transition at x/c =  0.2766   58
 Side 2 forced transition at x/c =  1.0001   66

   2   rms: 0.4172E-01   max: -.2173E+00   D at   58  1
       a = 11.000      CL =  1.7076
      Cm = -0.1250     CD =  0.04179   =>   CDf =  0.00721    CDp =  0.03458

 Side 1  free  transition at x/c =  0.2712   58
 Side 2 forced transition at x/c =  1.0001   65

   3   rms: 0.3486E-02   max: -.2634E-01   C at   58  1
       a = 11.000      CL =  1.7079
      Cm = -0.1250     CD =  0.04162   =>   CDf =  0.00753    CDp =  0.03409

 Side 1  free  transition at x/c =  0.2708   58
 Side 2 forced transition at x/c =  1.0001   65

   4   rms: 0.7470E-03   max: -.7857E-02   D at    4  1
       a = 11.000      CL =  1.7082
      Cm = -0.1250     CD =  0.04162   =>   CDf =  0.00752    CDp =  0.03410

 Side 1  free  transition at x/c =  0.2708   58
 Side 2 forced transition at x/c =  1.0001   65

   5   rms: 0.8951E-05   max: -.7923E-04   D at   76  2
       a = 11.000      CL =  1.7082
      Cm = -0.1250     CD =  0.04162   =>   CDf =  0.00752    CDp =  0.03410

 Point added to stored polar  1
 Point written to save file  000093M0.04.log                                 
 Dump file unspecified or not available
 Calculating wake trajectory ...
 Calculating source influence matrix ...

 Solving BL system ...

 Side 1  free  transition at x/c =  0.2708   58
 Side 2 forced transition at x/c =  1.0001   65

   1   rms: 0.1152E+00   max: 0.4174E+00   T at   58  1   RLX: 0.567
       a = 12.000      CL =  1.7318
      Cm = -0.1231     CD =  0.04520   =>   CDf =  0.00754    CDp =  0.03766

 Side 1  free  transition at x/c =  0.2610   58
 Side 2 forced transition at x/c =  1.0001   65

   2   rms: 0.4704E-01   max: -.2045E+00   D at   58  1
       a = 12.000      CL =  1.7499
      Cm = -0.1213     CD =  0.04758   =>   CDf =  0.00714    CDp =  0.04044

 Side 1  free  transition at x/c =  0.2555   59
 Side 2 forced transition at x/c =  1.0001   64

   3   rms: 0.6819E-02   max: -.4311E-01   D at   83  1
       a = 12.000      CL =  1.7533
      Cm = -0.1212     CD =  0.04694   =>   CDf =  0.00748    CDp =  0.03945

 Side 1  free  transition at x/c =  0.2549   58
 Side 2 forced transition at x/c =  1.0001   64

   4   rms: 0.3051E-02   max: -.2217E-01   D at   58  1
       a = 12.000      CL =  1.7515
      Cm = -0.1212     CD =  0.04722   =>   CDf =  0.00750    CDp =  0.03972

 Side 1  free  transition at x/c =  0.2550   58
 Side 2 forced transition at x/c =  1.0001   64

   5   rms: 0.6584E-04   max: 0.1385E-02   D at   82  1
       a = 12.000      CL =  1.7515
      Cm = -0.1212     CD =  0.04720   =>   CDf =  0.00748    CDp =  0.03972

 Point added to stored polar  1
 Point written to save file  000093M0.04.log                                 
 Dump file unspecified or not available
 Calculating wake trajectory ...
 Calculating source influence matrix ...

 Solving BL system ...

 Side 1  free  transition at x/c =  0.2550   58
 Side 2 forced transition at x/c =  1.0001   64

   1   rms: 0.1138E+00   max: -.4392E+00   C at   58  1   RLX: 0.517
       a = 13.000      CL =  1.7677
      Cm = -0.1196     CD =  0.05124   =>   CDf =  0.00751    CDp =  0.04374

 Side 1  free  transition at x/c =  0.2473   58
 Side 2 forced transition at x/c =  1.0001   64

   2   rms: 0.5186E-01   max: 0.1849E+00   T at   58  1
       a = 13.000      CL =  1.7865
      Cm = -0.1180     CD =  0.05418   =>   CDf =  0.00702    CDp =  0.04716

 Side 1  free  transition at x/c =  0.2408   59
 Side 2 forced transition at x/c =  1.0001   63

   3   rms: 0.5151E-02   max: -.3584E-01   D at   83  1
       a = 13.000      CL =  1.7873
      Cm = -0.1177     CD =  0.05368   =>   CDf =  0.00736    CDp =  0.04632

 Side 1  free  transition at x/c =  0.2409   59
 Side 2 forced transition at x/c =  1.0001   63

   4   rms: 0.7678E-03   max: -.5421E-02   D at    4  1
       a = 13.000      CL =  1.7878
      Cm = -0.1178     CD =  0.05369   =>   CDf =  0.00736    CDp =  0.04633

 Side 1  free  transition at x/c =  0.2409   59
 Side 2 forced transition at x/c =  1.0001   63

   5   rms: 0.1990E-04   max: -.1456E-03   D at   76  2
       a = 13.000      CL =  1.7878
      Cm = -0.1178     CD =  0.05370   =>   CDf =  0.00736    CDp =  0.04633

 Point added to stored polar  1
 Point written to save file  000093M0.04.log                                 
 Dump file unspecified or not available
 Calculating wake trajectory ...
 Calculating source influence matrix ...

 Solving BL system ...

 Side 1  free  transition at x/c =  0.2409   59
 Side 2 forced transition at x/c =  1.0001   63

   1   rms: 0.1195E+00   max: 0.4365E+00   T at   59  1   RLX: 0.492
       a = 14.000      CL =  1.8197
      Cm = -0.1163     CD =  0.05538   =>   CDf =  0.00739    CDp =  0.04799

 Side 1  free  transition at x/c =  0.2348   58
 Side 2 forced transition at x/c =  1.0001   63

   2   rms: 0.6335E-01   max: 0.2828E+00   D at   81  1
       a = 14.000      CL =  1.8128
      Cm = -0.1149     CD =  0.06232   =>   CDf =  0.00699    CDp =  0.05532

 Side 1  free  transition at x/c =  0.2279   59
 Side 2 forced transition at x/c =  1.0001   62

   3   rms: 0.1334E-01   max: -.1091E+00   D at   59  1
       a = 14.000      CL =  1.8169
      Cm = -0.1149     CD =  0.06101   =>   CDf =  0.00715    CDp =  0.05386

 Side 1  free  transition at x/c =  0.2284   59
 Side 2 forced transition at x/c =  1.0001   62

   4   rms: 0.2554E-02   max: -.9693E-02   D at   75  2
       a = 14.000      CL =  1.8193
      Cm = -0.1150     CD =  0.06099   =>   CDf =  0.00713    CDp =  0.05385

 Side 1  free  transition at x/c =  0.2283   59
 Side 2 forced transition at x/c =  1.0001   62

   5   rms: 0.9015E-04   max: -.7765E-03   D at   75  2
       a = 14.000      CL =  1.8193
      Cm = -0.1150     CD =  0.06101   =>   CDf =  0.00714    CDp =  0.05387

 Point added to stored polar  1
 Point written to save file  000093M0.04.log                                 
 Dump file unspecified or not available
 Calculating wake trajectory ...
 Calculating source influence matrix ...

 Solving BL system ...

 Side 1  free  transition at x/c =  0.2283   59
 Side 2 forced transition at x/c =  1.0001   62

   1   rms: 0.1089E+00   max: 0.1900E+00   D at   79  2   RLX: 0.444
       a = 15.000      CL =  1.8366
      Cm = -0.1140     CD =  0.06415   =>   CDf =  0.00717    CDp =  0.05698

 Side 1  free  transition at x/c =  0.2236   58
 Side 2 forced transition at x/c =  1.0001   62

   2   rms: 0.6129E-01   max: -.2737E+00   C at   58  1
       a = 15.000      CL =  1.8398
      Cm = -0.1129     CD =  0.07062   =>   CDf =  0.00683    CDp =  0.06379

 Side 1  free  transition at x/c =  0.2164   59
 Side 2 forced transition at x/c =  1.0001   61

   3   rms: 0.1046E-01   max: -.7654E-01   D at   82  1
       a = 15.000      CL =  1.8449
      Cm = -0.1126     CD =  0.06889   =>   CDf =  0.00693    CDp =  0.06196

 Side 1  free  transition at x/c =  0.2166   59
 Side 2 forced transition at x/c =  1.0001   61

   4   rms: 0.1327E-02   max: -.5849E-02   D at    4  1
       a = 15.000      CL =  1.8460
      Cm = -0.1127     CD =  0.06899   =>   CDf =  0.00693    CDp =  0.06206

 Side 1  free  transition at x/c =  0.2165   59
 Side 2 forced transition at x/c =  1.0001   61

   5   rms: 0.5200E-04   max: -.4084E-03   D at   75  2
       a = 15.000      CL =  1.8460
      Cm = -0.1127     CD =  0.06900   =>   CDf =  0.00693    CDp =  0.06207

 Point added to stored polar  1
 Point written to save file  000093M0.04.log                                 
 Dump file unspecified or not available

.OPERva   c>  
 XFOIL   c>  
0.1
resp: 
 ===================================================
  XFOIL Version 6.97
  Copyright (C) 2000   Mark Drela, Harold Youngren

  This software comes with ABSOLUTELY NO WARRANTY,
    subject to the GNU General Public License.

  Caveat computor
 ===================================================

 File  xfoil.def  not found

   QUIT    Exit program

  .OPER    Direct operating point(s)
  .MDES    Complex mapping design routine
  .QDES    Surface speed design routine
  .GDES    Geometry design routine

   SAVE f  Write airfoil to labeled coordinate file
   PSAV f  Write airfoil to plain coordinate file
   ISAV f  Write airfoil to ISES coordinate file
   MSAV f  Write airfoil to MSES coordinate file
   REVE    Reverse written-airfoil node ordering
   DELI i  Change written-airfoil file delimiters

   LOAD f  Read buffer airfoil from coordinate file
   NACA i  Set NACA 4,5-digit airfoil and buffer airfoil
   INTE    Set buffer airfoil by interpolating two airfoils
   NORM    Buffer airfoil normalization toggle
   HALF    Halve the number of points in buffer airfoil
   XYCM rr Change CM reference location, currently  0.25000 0.00000

   BEND    Display structural properties of current airfoil

   PCOP    Set current-airfoil panel nodes directly from buffer airfoil points
   PANE    Set current-airfoil panel nodes ( 160 ) based on curvature
  .PPAR    Show/change paneling

  .PLOP    Plotting options

   WDEF f  Write  current-settings file
   RDEF f  Reread current-settings file
   NAME s  Specify new airfoil name
   NINC    Increment name version number

   Z       Zoom    | (available in all menus)
   U       Unzoom  | 

 XFOIL   c>   ...............................................

  G raphics-enable flag:        T
  S ize of plot object          10.00"
  A spect ratio of plot object   0.5500
  P age dimensions              11.00 x  8.50"
  M argins from page edges       0.00",  0.00"
  F ont size (relative)          0.0150
  W indow/screen size fraction   0.8000
  B lowup input method:        Cursor    
  O rientation of plot:        Landscape 
  C olor PostScript output?     F

      Option, Value   (or <Return>)    c>   ...............................................

  G raphics-enable flag:        F
  S ize of plot object          10.00"
  A spect ratio of plot object   0.5500
  P age dimensions              11.00 x  8.50"
  M argins from page edges       0.00",  0.00"
  F ont size (relative)          0.0150
  W indow/screen size fraction   0.8000
  B lowup input method:        Cursor    
  O rientation of plot:        Landscape 
  C olor PostScript output?     F

      Option, Value   (or <Return>)    c>  
 XFOIL   c>  
 Labeled airfoil file.  Name:  000093                                          

 Number of input coordinate points: 200
 Clockwise ordering
 Max thickness =     0.177711  at x =   0.206
 Max camber    =     0.090013  at x =   0.438

  LE  x,y  =  -0.00003   0.00171  |   Chord =   0.99991
  TE  x,y  =   0.99988   0.00005  |

 Current airfoil nodes set from buffer airfoil nodes ( 200 )

 XFOIL   c>  
 You are working with the buffer airfoil

.GDES   c>  
  i       x        y      angle
   2   0.9990   0.0004   -0.048
   3   0.9978   0.0010    0.035
   4   0.9961   0.0017   -0.009
   5   0.9938   0.0026   -0.003
   6   0.9911   0.0038    0.022
   7   0.9880   0.0052   -0.017
   8   0.9843   0.0067    0.039
   9   0.9801   0.0085   -0.001
  10   0.9755   0.0105    0.036
  11   0.9704   0.0127    0.028
  12   0.9649   0.0150    0.031
  13   0.9589   0.0176    0.057
  14   0.9524   0.0203    0.058
  15   0.9455   0.0233    0.066
  16   0.9382   0.0264    0.090
  17   0.9304   0.0296    0.105
  18   0.9222   0.0331    0.110
  19   0.9135   0.0367    0.134
  20   0.9045   0.0404    0.153
  21   0.8951   0.0443    0.172
  22   0.8853   0.0483    0.196
  23   0.8751   0.0524    0.212
  24   0.8645   0.0566    0.231
  25   0.8536   0.0609    0.260
  26   0.8423   0.0653    0.286
  27   0.8307   0.0697    0.301
  28   0.8187   0.0742    0.329
  29   0.8065   0.0787    0.355
  30   0.7939   0.0833    0.380
  31   0.7810   0.0879    0.403
  32   0.7679   0.0924    0.419
  33   0.7545   0.0970    0.455
  34   0.7409   0.1015    0.469
  35   0.7270   0.1060    0.497
  36   0.7129   0.1104    0.515
  37   0.6986   0.1147    0.534
  38   0.6841   0.1189    0.558
  39   0.6694   0.1231    0.571
  40   0.6545   0.1271    0.595
  41   0.6395   0.1310    0.608
  42   0.6243   0.1348    0.621
  43   0.6091   0.1384    0.635
  44   0.5937   0.1419    0.653
  45   0.5782   0.1452    0.658
  46   0.5627   0.1483    0.674
  47   0.5471   0.1512    0.679
  48   0.5314   0.1540    0.690
  49   0.5157   0.1566    0.699
  50   0.5000   0.1590    0.707
  51   0.4843   0.1612    0.710
  52   0.4686   0.1632    0.729
  53   0.4529   0.1650    0.725
  54   0.4373   0.1665    0.744
  55   0.4218   0.1679    0.748
  56   0.4063   0.1691    0.764
  57   0.3909   0.1700    0.768
  58   0.3757   0.1707    0.793
  59   0.3605   0.1713    0.806
  60   0.3455   0.1716    0.821
  61   0.3306   0.1716    0.854
  62   0.3159   0.1715    0.871
  63   0.3014   0.1712    0.907
  64   0.2871   0.1706    0.938
  65   0.2730   0.1698    0.977
  66   0.2591   0.1688    1.020
  67   0.2455   0.1675    1.068
  68   0.2321   0.1660    1.123
  69   0.2190   0.1643    1.181
  70   0.2061   0.1624    1.244
  71   0.1935   0.1602    1.318
  72   0.1813   0.1578    1.392
  73   0.1693   0.1551    1.474
  74   0.1577   0.1522    1.565
  75   0.1464   0.1491    1.659
  76   0.1355   0.1457    1.760
  77   0.1249   0.1420    1.865
  78   0.1147   0.1381    1.974
  79   0.1049   0.1340    2.096
  80   0.0955   0.1296    2.202
  81   0.0865   0.1250    2.333
  82   0.0778   0.1201    2.454
  83   0.0696   0.1150    2.575
  84   0.0618   0.1096    2.692
  85   0.0545   0.1040    2.819
  86   0.0476   0.0982    2.938
  87   0.0411   0.0922    3.044
  88   0.0351   0.0860    3.144
  89   0.0296   0.0796    3.241
  90   0.0245   0.0730    3.334
  91   0.0199   0.0662    3.406
  92   0.0157   0.0592    3.488
  93   0.0120   0.0522    3.529
  94   0.0089   0.0450    3.599
  95   0.0062   0.0376    3.625
  96   0.0039   0.0302    3.658
  97   0.0022   0.0227    3.692
  98   0.0010   0.0152    3.699
  99   0.0002   0.0076    3.712
 100   0.0000   0.0000    7.501
 101   0.0002  -0.0025   10.968
 102   0.0010  -0.0050   10.172
 103   0.0022  -0.0074    9.115
 104   0.0039  -0.0098    7.950
 105   0.0062  -0.0121    6.879
 106   0.0089  -0.0143    5.961
 107   0.0120  -0.0164    5.123
 108   0.0157  -0.0184    4.486
 109   0.0199  -0.0202    3.916
 110   0.0245  -0.0219    3.457
 111   0.0296  -0.0233    3.057
 112   0.0351  -0.0247    2.722
 113   0.0411  -0.0258    2.427
 114   0.0476  -0.0267    2.180
 115   0.0545  -0.0274    1.955
 116   0.0618  -0.0279    1.755
 117   0.0696  -0.0282    1.581
 118   0.0778  -0.0283    1.400
 119   0.0865  -0.0282    1.266
 120   0.0955  -0.0279    1.122
 121   0.1049  -0.0274    0.997
 122   0.1147  -0.0267    0.879
 123   0.1249  -0.0258    0.765
 124   0.1355  -0.0247    0.667
 125   0.1464  -0.0235    0.570
 126   0.1577  -0.0221    0.482
 127   0.1693  -0.0206    0.387
 128   0.1813  -0.0189    0.319
 129   0.1935  -0.0171    0.234
 130   0.2061  -0.0153    0.170
 131   0.2190  -0.0133    0.102
 132   0.2321  -0.0113    0.041
 133   0.2455  -0.0093   -0.020
 134   0.2591  -0.0072   -0.071
 135   0.2730  -0.0051   -0.119
 136   0.2871  -0.0029   -0.171
 137   0.3014  -0.0008   -0.212
 138   0.3159   0.0012   -0.248
 139   0.3306   0.0033   -0.289
 140   0.3455   0.0053   -0.316
 141   0.3605   0.0072   -0.346
 142   0.3757   0.0090   -0.369
 143   0.3909   0.0108   -0.392
 144   0.4063   0.0125   -0.414
 145   0.4218   0.0140   -0.426
 146   0.4373   0.0155   -0.440
 147   0.4529   0.0168   -0.447
 148   0.4686   0.0181   -0.455
 149   0.4843   0.0192   -0.461
 150   0.5000   0.0201   -0.455
 151   0.5157   0.0210   -0.460
 152   0.5314   0.0217   -0.455
 153   0.5471   0.0223   -0.452
 154   0.5627   0.0228   -0.439
 155   0.5782   0.0231   -0.430
 156   0.5937   0.0233   -0.427
 157   0.6091   0.0235   -0.406
 158   0.6243   0.0235   -0.393
 159   0.6395   0.0234   -0.385
 160   0.6545   0.0232   -0.362
 161   0.6694   0.0229   -0.352
 162   0.6841   0.0225   -0.330
 163   0.6986   0.0221   -0.316
 164   0.7129   0.0215   -0.299
 165   0.7270   0.0209   -0.278
 166   0.7409   0.0203   -0.260
 167   0.7545   0.0196   -0.252
 168   0.7679   0.0188   -0.221
 169   0.7810   0.0180   -0.216
 170   0.7939   0.0172   -0.193
 171   0.8065   0.0164   -0.178
 172   0.8187   0.0155   -0.162
 173   0.8307   0.0147   -0.146
 174   0.8423   0.0138   -0.134
 175   0.8536   0.0129   -0.125
 176   0.8645   0.0120   -0.101
 177   0.8751   0.0112   -0.097
 178   0.8853   0.0103   -0.085
 179   0.8951   0.0095   -0.074
 180   0.9045   0.0087   -0.065
 181   0.9135   0.0079   -0.051
 182   0.9222   0.0071   -0.054
 183   0.9304   0.0064   -0.036
 184   0.9382   0.0057   -0.030
 185   0.9455   0.0050   -0.031
 186   0.9524   0.0044   -0.024
 187   0.9589   0.0038   -0.013
 188   0.9649   0.0032   -0.011
 189   0.9704   0.0027   -0.018
 190   0.9755   0.0023   -0.003
 191   0.9801   0.0018   -0.010
 192   0.9843   0.0015   -0.004
 193   0.9880   0.0011   -0.007
 194   0.9911   0.0008    0.021
 195   0.9938   0.0006   -0.023
 196   0.9961   0.0004   -0.010
 197   0.9978   0.0002    0.016
 198   0.9990   0.0001    0.036
 199   0.9998   0.0000   -0.070

 Maximum panel corner angle = 10.968   at  i,x,y  = 101   0.0002  -0.0025

 Enter corner angle criterion for refinement (deg):   5.484
 Enter type of spline parameter (1=uniform, 2=arclength):   1
 Enter refinement x limits:  -0.10000   1.10000
 Number of points added:           14
 Max thickness =     0.177659  at x =   0.219
 Max camber    =     0.091081  at x =   0.437

 Maximum panel corner angle =  7.449   at  i,x,y  = 103   0.0001  -0.0020

.GDES   c>  
 Buffer airfoil is not identical to current airfoil

 XFOIL   c>  
 Blunt trailing edge.  Gap =  0.00027

 Paneling parameters used...
   Number of panel nodes       160
   Panel bunching parameter    1.000
   TE/LE panel density ratio   0.150
   Refined-area/LE panel density ratio    0.200
   Top    side refined area x/c limits  1.000 1.000
   Bottom side refined area x/c limits  1.000 1.000

 XFOIL   c>  
.OPERi   c>   Current iteration limit:          20

Enter new iteration limit   i>  
Enter new iteration limit   i>  
Enter new iteration limit   i>  
.OPERi   c>  
 M  =    0.0000
 Re =  0.3000E+06

.OPERv   c>  
 Sonic Cp =    -66.86      Sonic Q/Qinf =     9.138


.OPERv   c>  
 Polar  1 newly created for accumulation
 Airfoil archived with polar: 000093                                          

Enter  polar save filename  OR  <return> for no file   s>  
 New polar save file available

Enter  polar dump filename  OR  <return> for no file   s>  
 Polar dump file will NOT be written

 Polar accumulation enabled

.OPERva   c>   Calculating unit vorticity distributions ...
 Calculating wake trajectory ...
 Calculating source influence matrix ...

 Solving BL system ...

 Initializing BL ...
    side            1  ...
 MRCHUE: Inverse mode at  55     Hk =   4.391
 MRCHUE: Inverse mode at  56     Hk =   5.220
 MRCHUE: Inverse mode at  57     Hk =   6.034
 MRCHUE: Inverse mode at  58     Hk =   6.838
 MRCHUE: Inverse mode at  59     Hk =   7.633
 MRCHUE: Inverse mode at  60     Hk =   7.280
 MRCHUE: Inverse mode at  61     Hk =   3.885
 MRCHUE: Inverse mode at  62     Hk =   2.500
 MRCHUE: Inverse mode at  86     Hk =   2.500
 MRCHUE: Inverse mode at  87     Hk =   2.500
 MRCHUE: Inverse mode at  88     Hk =   2.500
 MRCHUE: Convergence failed at  89  side 1    Res =  0.1284E+02
    side            2  ...
 MRCHUE: Inverse mode at  34     Hk =   4.256
 MRCHUE: Inverse mode at  35     Hk =   5.096
 MRCHUE: Inverse mode at  36     Hk =   5.954
 MRCHUE: Inverse mode at  37     Hk =   6.828
 MRCHUE: Inverse mode at  38     Hk =   7.708
 MRCHUE: Inverse mode at  39     Hk =   8.580
 MRCHUE: Inverse mode at  40     Hk =   9.437
 MRCHUE: Inverse mode at  41     Hk =   5.617
 MRCHUE: Inverse mode at  42     Hk =   3.640
 MRCHUE: Inverse mode at  43     Hk =   2.500
 MRCHUE: Convergence failed at  73  side 2    Res =  0.6284E+01
 MRCHUE: Convergence failed at  75  side 2    Res =  0.5280E-01

 MRCHDU: Convergence failed at  89  side 1    Res =  0.1283E+02
 MRCHDU: Convergence failed at  75  side 2    Res =  0.7751E-01
 Side 1  free  transition at x/c =  0.4490   60
 Side 2  free  transition at x/c =  0.3057   41

   1   rms: 0.7269E+00   max: 0.3859E+01   D at   75  2   RLX: 0.291
       a =  2.000      CL =  1.3075
      Cm = -0.2040     CD =  0.00560   =>   CDf =  0.00894    CDp = -0.00333

 Side 1  free  transition at x/c =  0.4655   60
 Side 2  free  transition at x/c =  0.3044   42

   2   rms: 0.4015E+00   max: 0.1891E+01   D at   77  2   RLX: 0.374
       a =  2.000      CL =  1.2291
      Cm = -0.1887     CD =  0.00739   =>   CDf =  0.00843    CDp = -0.00104

 Side 1  free  transition at x/c =  0.4796   61
 Side 2  free  transition at x/c =  0.3017   41

   3   rms: 0.2092E+00   max: 0.9412E+00   D at   78  2   RLX: 0.535
       a =  2.000      CL =  1.1713
      Cm = -0.1761     CD =  0.01056   =>   CDf =  0.00847    CDp =  0.00209

 Side 1  free  transition at x/c =  0.5029   61
 Side 2  free  transition at x/c =  0.2964   42

   4   rms: 0.9442E-01   max: -.6193E+00   C at   61  1   RLX: 0.807
       a =  2.000      CL =  1.1638
      Cm = -0.1743     CD =  0.01371   =>   CDf =  0.00788    CDp =  0.00583

 Side 1  free  transition at x/c =  0.5220   62
 Side 2  free  transition at x/c =  0.2951   42

   5   rms: 0.1850E-01   max: -.1528E+00   C at   62  1
       a =  2.000      CL =  1.1644
      Cm = -0.1746     CD =  0.01510   =>   CDf =  0.00767    CDp =  0.00743

 Side 1  free  transition at x/c =  0.5321   63
 Side 2  free  transition at x/c =  0.2945   42

   6   rms: 0.5008E-02   max: -.4729E-01   C at   63  1
       a =  2.000      CL =  1.1653
      Cm = -0.1748     CD =  0.01513   =>   CDf =  0.00757    CDp =  0.00756

 Side 1  free  transition at x/c =  0.5328   63
 Side 2  free  transition at x/c =  0.2946   42

   7   rms: 0.5619E-03   max: -.3365E-02   D at   87  1
       a =  2.000      CL =  1.1658
      Cm = -0.1749     CD =  0.01513   =>   CDf =  0.00752    CDp =  0.00761

 Side 1  free  transition at x/c =  0.5328   63
 Side 2  free  transition at x/c =  0.2947   42

   8   rms: 0.3377E-05   max: -.1569E-04   D at   84  1
       a =  2.000      CL =  1.1658
      Cm = -0.1749     CD =  0.01513   =>   CDf =  0.00752    CDp =  0.00761

 Point added to stored polar  1
 Point written to save file  000093M0.1.log                                  
 Dump file unspecified or not available
 Calculating wake trajectory ...
 Calculating source influence matrix ...

 Solving BL system ...

 Side 1  free  transition at x/c =  0.5328   63
 Side 2  free  transition at x/c =  0.2947   42

   1   rms: 0.1506E+00   max: -.9817E+00   T at   42  2   RLX: 0.509
       a =  3.000      CL =  1.2092
      Cm = -0.1723     CD =  0.01561   =>   CDf =  0.00736    CDp =  0.00826

 Side 1  free  transition at x/c =  0.5141   63
 Side 2  free  transition at x/c =  0.3222   42

   2   rms: 0.7242E-01   max: 0.4378E+00   D at   42  2
       a =  3.000      CL =  1.2423
      Cm = -0.1684     CD =  0.01590   =>   CDf =  0.00735    CDp =  0.00854

 Side 1  free  transition at x/c =  0.4945   63
 Side 2  free  transition at x/c =  0.3470   42

   3   rms: 0.2517E-01   max: -.2362E+00   D at   63  1
       a =  3.000      CL =  1.2425
      Cm = -0.1686     CD =  0.01612   =>   CDf =  0.00766    CDp =  0.00846

 Side 1  free  transition at x/c =  0.4933   63
 Side 2  free  transition at x/c =  0.3518   43

   4   rms: 0.4830E-02   max: -.6730E-01   D at   42  2
       a =  3.000      CL =  1.2444
      Cm = -0.1690     CD =  0.01615   =>   CDf =  0.00759    CDp =  0.00855

 Side 1  free  transition at x/c =  0.4926   63
 Side 2  free  transition at x/c =  0.3517   43

   5   rms: 0.4358E-03   max: 0.4571E-02   D at   43  2
       a =  3.000      CL =  1.2444
      Cm = -0.1690     CD =  0.01615   =>   CDf =  0.00760    CDp =  0.00855

 Side 1  free  transition at x/c =  0.4926   63
 Side 2  free  transition at x/c =  0.3516   43

   6   rms: 0.2649E-05   max: 0.2071E-04   D at    4  1
       a =  3.000      CL =  1.2444
      Cm = -0.1690     CD =  0.01615   =>   CDf =  0.00760    CDp =  0.00855

 Point added to stored polar  1
 Point written to save file  000093M0.1.log                                  
 Dump file unspecified or not available
 Calculating wake trajectory ...
 Calculating source influence matrix ...

 Solving BL system ...

 Side 1  free  transition at x/c =  0.4926   63
 Side 2  free  transition at x/c =  0.3516   43

   1   rms: 0.1738E+00   max: -.1050E+01   T at   43  2   RLX: 0.476
       a =  4.000      CL =  1.2835
      Cm = -0.1668     CD =  0.01676   =>   CDf =  0.00761    CDp =  0.00915

 Side 1  free  transition at x/c =  0.4749   62
 Side 2  free  transition at x/c =  0.3760   44

   2   rms: 0.1427E+00   max: -.1323E+01   T at   44  2   RLX: 0.378
       a =  4.000      CL =  1.2972
      Cm = -0.1653     CD =  0.01722   =>   CDf =  0.00775    CDp =  0.00948

 Side 1  free  transition at x/c =  0.4680   61
 Side 2  free  transition at x/c =  0.3898   44

   3   rms: 0.7172E-01   max: -.7183E+00   T at   44  2   RLX: 0.696
       a =  4.000      CL =  1.3109
      Cm = -0.1635     CD =  0.01761   =>   CDf =  0.00776    CDp =  0.00985

 MRCHDU: Convergence failed at  46  side 2    Res =  0.1547E+01
 MRCHDU: Convergence failed at  47  side 2    Res =  0.1458E+02
 MRCHDU: Convergence failed at  48  side 2    Res =  0.9822E+01
 MRCHDU: Convergence failed at  49  side 2    Res =  0.7915E+01
 MRCHDU: Convergence failed at  50  side 2    Res =  0.1038E+02
 MRCHDU: Convergence failed at  51  side 2    Res =  0.3013E+02
 MRCHDU: Convergence failed at  52  side 2    Res =  0.2176E+02
 MRCHDU: Convergence failed at  53  side 2    Res =  0.7270E+01
 Side 1  free  transition at x/c =  0.4562   61
 Side 2  free  transition at x/c =  0.4186   46

   4   rms: 0.1109E+00   max: -.1005E+01   D at   52  2   RLX: 0.498
       a =  4.000      CL =  1.3087
      Cm = -0.1618     CD =  0.01737   =>   CDf =  0.00683    CDp =  0.01054

 Side 1  free  transition at x/c =  0.4546   62
 Side 2  free  transition at x/c =  0.4380   46

   5   rms: 0.3203E-01   max: -.4023E+00   D at   46  2
       a =  4.000      CL =  1.3181
      Cm = -0.1631     CD =  0.01755   =>   CDf =  0.00762    CDp =  0.00994

 Side 1  free  transition at x/c =  0.4531   62
 Side 2  free  transition at x/c =  0.4520   46

   6   rms: 0.9141E-02   max: -.1462E+00   C at   46  2
       a =  4.000      CL =  1.3180
      Cm = -0.1631     CD =  0.01758   =>   CDf =  0.00753    CDp =  0.01005

 Side 1  free  transition at x/c =  0.4530   62
 Side 2  free  transition at x/c =  0.4442   46

   7   rms: 0.1760E-02   max: -.2952E-01   C at   46  2
       a =  4.000      CL =  1.3180
      Cm = -0.1631     CD =  0.01759   =>   CDf =  0.00753    CDp =  0.01007

 Side 1  free  transition at x/c =  0.4530   62
 Side 2  free  transition at x/c =  0.4454   46

   8   rms: 0.1660E-04   max: -.3425E-03   D at   48  2
       a =  4.000      CL =  1.3180
      Cm = -0.1631     CD =  0.01759   =>   CDf =  0.00752    CDp =  0.01007

 Point added to stored polar  1
 Point written to save file  000093M0.1.log                                  
 Dump file unspecified or not available
 Calculating wake trajectory ...
 Calculating source influence matrix ...

 Solving BL system ...

 Side 1  free  transition at x/c =  0.4530   62
 Side 2  free  transition at x/c =  0.4454   46

   1   rms: 0.2037E+00   max: -.2550E+01   C at   46  2   RLX: 0.196
       a =  5.000      CL =  1.3326
      Cm = -0.1621     CD =  0.01796   =>   CDf =  0.00754    CDp =  0.01042

 Side 1  free  transition at x/c =  0.4464   61
 Side 2  free  transition at x/c =  0.4727   47

   2   rms: 0.1714E+00   max: -.2525E+01   C at   47  2   RLX: 0.198
       a =  5.000      CL =  1.3445
      Cm = -0.1613     CD =  0.01814   =>   CDf =  0.00747    CDp =  0.01067

 Side 1  free  transition at x/c =  0.4393   61
 Side 2  free  transition at x/c =  0.4961   48

   3   rms: 0.1062E+00   max: -.8352E+00   T at   48  2   RLX: 0.599
       a =  5.000      CL =  1.3708
      Cm = -0.1589     CD =  0.01900   =>   CDf =  0.00749    CDp =  0.01151

 Side 1  free  transition at x/c =  0.4260   60
 Side 2 forced transition at x/c =  1.0001   72

   4   rms: 0.6856E-01   max: 0.6289E+00   D at   48  2
       a =  5.000      CL =  1.3821
      Cm = -0.1560     CD =  0.01872   =>   CDf =  0.00654    CDp =  0.01218

 Side 1  free  transition at x/c =  0.4153   61
 Side 2 forced transition at x/c =  1.0001   71

   5   rms: 0.9535E-02   max: 0.6230E-01   D at   48  2
       a =  5.000      CL =  1.3810
      Cm = -0.1559     CD =  0.01883   =>   CDf =  0.00686    CDp =  0.01197

 Side 1  free  transition at x/c =  0.4164   61
 Side 2 forced transition at x/c =  1.0001   71

   6   rms: 0.7540E-03   max: 0.3591E-02   D at   45  2
       a =  5.000      CL =  1.3814
      Cm = -0.1559     CD =  0.01883   =>   CDf =  0.00681    CDp =  0.01202

 Side 1  free  transition at x/c =  0.4163   61
 Side 2 forced transition at x/c =  1.0001   71

   7   rms: 0.4721E-05   max: 0.3399E-04   C at   71  2
       a =  5.000      CL =  1.3814
      Cm = -0.1559     CD =  0.01883   =>   CDf =  0.00681    CDp =  0.01202

 Point added to stored polar  1
 Point written to save file  000093M0.1.log                                  
 Dump file unspecified or not available
 Calculating wake trajectory ...
 Calculating source influence matrix ...

 Solving BL system ...

 Side 1  free  transition at x/c =  0.4163   61
 Side 2 forced transition at x/c =  1.0001   71

   1   rms: 0.1516E+00   max: -.6093E+00   D at   61  1   RLX: 0.821
       a =  6.000      CL =  1.4333
      Cm = -0.1506     CD =  0.02121   =>   CDf =  0.00683    CDp =  0.01438

 Side 1  free  transition at x/c =  0.3914   59
 Side 2 forced transition at x/c =  1.0001   71

   2   rms: 0.3697E-01   max: 0.3318E+00   D at   60  1
       a =  6.000      CL =  1.4451
      Cm = -0.1499     CD =  0.02160   =>   CDf =  0.00685    CDp =  0.01475

 Side 1  free  transition at x/c =  0.3824   60
 Side 2 forced transition at x/c =  1.0001   70

   3   rms: 0.2256E-02   max: 0.2709E-01   D at   61  1
       a =  6.000      CL =  1.4450
      Cm = -0.1499     CD =  0.02155   =>   CDf =  0.00706    CDp =  0.01448

 Side 1  free  transition at x/c =  0.3829   60
 Side 2 forced transition at x/c =  1.0001   70

   4   rms: 0.4490E-03   max: -.4941E-02   D at    4  1
       a =  6.000      CL =  1.4451
      Cm = -0.1499     CD =  0.02155   =>   CDf =  0.00705    CDp =  0.01450

 Side 1  free  transition at x/c =  0.3829   60
 Side 2 forced transition at x/c =  1.0001   70

   5   rms: 0.1886E-05   max: 0.1247E-04   D at    8  1
       a =  6.000      CL =  1.4451
      Cm = -0.1499     CD =  0.02155   =>   CDf =  0.00705    CDp =  0.01450

 Point added to stored polar  1
 Point written to save file  000093M0.1.log                                  
 Dump file unspecified or not available
 Calculating wake trajectory ...
 Calculating source influence matrix ...

 Solving BL system ...

 Side 1  free  transition at x/c =  0.3829   60
 Side 2 forced transition at x/c =  1.0001   70

   1   rms: 0.1343E+00   max: 0.2582E+00   D at   79  2   RLX: 0.931
       a =  7.000      CL =  1.5005
      Cm = -0.1442     CD =  0.02456   =>   CDf =  0.00707    CDp =  0.01749

 Side 1  free  transition at x/c =  0.3583   58
 Side 2 forced transition at x/c =  1.0001   70

   2   rms: 0.2410E-01   max: 0.3051E+00   D at   59  1
       a =  7.000      CL =  1.5045
      Cm = -0.1440     CD =  0.02484   =>   CDf =  0.00730    CDp =  0.01754

 Side 1  free  transition at x/c =  0.3547   58
 Side 2 forced transition at x/c =  1.0001   70

   3   rms: 0.1512E-02   max: -.1814E-01   D at   60  1
       a =  7.000      CL =  1.5050
      Cm = -0.1441     CD =  0.02477   =>   CDf =  0.00723    CDp =  0.01753

 Side 1  free  transition at x/c =  0.3540   58
 Side 2 forced transition at x/c =  1.0001   70

   4   rms: 0.4085E-04   max: -.3747E-03   D at    4  2
       a =  7.000      CL =  1.5050
      Cm = -0.1441     CD =  0.02477   =>   CDf =  0.00724    CDp =  0.01752

 Point added to stored polar  1
 Point written to save file  000093M0.1.log                                  
 Dump file unspecified or not available
 Calculating wake trajectory ...
 Calculating source influence matrix ...

 Solving BL system ...

 Side 1  free  transition at x/c =  0.3540   58
 Side 2 forced transition at x/c =  1.0001   70

   1   rms: 0.1672E+00   max: 0.1625E+01   T at    2  2   RLX: 0.348
       a =  8.000      CL =  1.5261
      Cm = -0.1423     CD =  0.02595   =>   CDf =  0.00705    CDp =  0.01890

 Side 1  free  transition at x/c =  0.3433   59
 Side 2 forced transition at x/c =  1.0001   69

   2   rms: 0.8201E-01   max: -.3771E+00   D at   59  1
       a =  8.000      CL =  1.5625
      Cm = -0.1385     CD =  0.02849   =>   CDf =  0.00714    CDp =  0.02134

 Side 1  free  transition at x/c =  0.3303   59
 Side 2 forced transition at x/c =  1.0001   68

   3   rms: 0.2867E-01   max: -.3289E+00   D at    2  1
       a =  8.000      CL =  1.5568
      Cm = -0.1382     CD =  0.02859   =>   CDf =  0.00759    CDp =  0.02101

 Side 1  free  transition at x/c =  0.3290   58
 Side 2 forced transition at x/c =  1.0001   69

   4   rms: 0.7401E-02   max: 0.6661E-01   D at    2  2
       a =  8.000      CL =  1.5607
      Cm = -0.1386     CD =  0.02845   =>   CDf =  0.00733    CDp =  0.02112

 Side 1  free  transition at x/c =  0.3283   58
 Side 2 forced transition at x/c =  1.0001   69

   5   rms: 0.8817E-03   max: 0.1099E-01   D at    4  2
       a =  8.000      CL =  1.5607
      Cm = -0.1386     CD =  0.02848   =>   CDf =  0.00736    CDp =  0.02111

 Side 1  free  transition at x/c =  0.3283   58
 Side 2 forced transition at x/c =  1.0001   69

   6   rms: 0.8395E-05   max: 0.9813E-04   D at    4  2
       a =  8.000      CL =  1.5607
      Cm = -0.1386     CD =  0.02848   =>   CDf =  0.00736    CDp =  0.02111

 Point added to stored polar  1
 Point written to save file  000093M0.1.log                                  
 Dump file unspecified or not available
 Calculating wake trajectory ...
 Calculating source influence matrix ...

 Solving BL system ...

 Side 1  free  transition at x/c =  0.3283   58
 Side 2 forced transition at x/c =  1.0001   69

   1   rms: 0.1279E+00   max: -.5778E+00   D at    3  2   RLX: 0.740
       a =  9.000      CL =  1.5995
      Cm = -0.1346     CD =  0.03161   =>   CDf =  0.00715    CDp =  0.02446

 Side 1  free  transition at x/c =  0.3132   58
 Side 2 forced transition at x/c =  1.0001   68

   2   rms: 0.3747E-01   max: -.3105E+00   D at   58  1
       a =  9.000      CL =  1.6085
      Cm = -0.1330     CD =  0.03285   =>   CDf =  0.00743    CDp =  0.02542

 Side 1  free  transition at x/c =  0.3065   58
 Side 2 forced transition at x/c =  1.0001   68

   3   rms: 0.8814E-02   max: -.6161E-01   D at   83  1
       a =  9.000      CL =  1.6122
      Cm = -0.1333     CD =  0.03268   =>   CDf =  0.00748    CDp =  0.02520

 Side 1  free  transition at x/c =  0.3060   58
 Side 2 forced transition at x/c =  1.0001   68

   4   rms: 0.4829E-03   max: -.2628E-02   D at   78  2
       a =  9.000      CL =  1.6126
      Cm = -0.1333     CD =  0.03270   =>   CDf =  0.00751    CDp =  0.02519

 Side 1  free  transition at x/c =  0.3060   58
 Side 2 forced transition at x/c =  1.0001   68

   5   rms: 0.9150E-05   max: 0.1273E-03   D at    2  2
       a =  9.000      CL =  1.6126
      Cm = -0.1333     CD =  0.03270   =>   CDf =  0.00751    CDp =  0.02519

 Point added to stored polar  1
 Point written to save file  000093M0.1.log                                  
 Dump file unspecified or not available
 Calculating wake trajectory ...
 Calculating source influence matrix ...

 Solving BL system ...

 Side 1  free  transition at x/c =  0.3059   58
 Side 2 forced transition at x/c =  1.0001   68

   1   rms: 0.1268E+00   max: 0.2198E+00   D at   81  2   RLX: 0.681
       a = 10.000      CL =  1.6567
      Cm = -0.1304     CD =  0.03525   =>   CDf =  0.00728    CDp =  0.02797

 Side 1  free  transition at x/c =  0.2914   58
 Side 2 forced transition at x/c =  1.0001   67

   2   rms: 0.5390E-01   max: -.4998E+00   D at   58  1
       a = 10.000      CL =  1.6531
      Cm = -0.1277     CD =  0.03760   =>   CDf =  0.00754    CDp =  0.03006

 Side 1  free  transition at x/c =  0.2887   58
 Side 2 forced transition at x/c =  1.0001   67

   3   rms: 0.1714E-01   max: -.1076E+00   D at   59  1
       a = 10.000      CL =  1.6625
      Cm = -0.1285     CD =  0.03719   =>   CDf =  0.00720    CDp =  0.02999

 Side 1  free  transition at x/c =  0.2864   58
 Side 2 forced transition at x/c =  1.0001   66

   4   rms: 0.5680E-02   max: -.5604E-01   D at   58  1
       a = 10.000      CL =  1.6611
      Cm = -0.1286     CD =  0.03747   =>   CDf =  0.00752    CDp =  0.02995

 Side 1  free  transition at x/c =  0.2864   58
 Side 2 forced transition at x/c =  1.0001   66

   5   rms: 0.9565E-03   max: -.8018E-02   D at    4  1
       a = 10.000      CL =  1.6617
      Cm = -0.1286     CD =  0.03742   =>   CDf =  0.00749    CDp =  0.02994

 Side 1  free  transition at x/c =  0.2864   58
 Side 2 forced transition at x/c =  1.0001   66

   6   rms: 0.1686E-04   max: -.1430E-03   D at   77  2
       a = 10.000      CL =  1.6617
      Cm = -0.1286     CD =  0.03742   =>   CDf =  0.00749    CDp =  0.02994

 Point added to stored polar  1
 Point written to save file  000093M0.1.log                                  
 Dump file unspecified or not available
 Calculating wake trajectory ...
 Calculating source influence matrix ...

 Solving BL system ...

 Side 1  free  transition at x/c =  0.2864   58
 Side 2 forced transition at x/c =  1.0001   66

   1   rms: 0.1177E+00   max: 0.4070E+00   T at   58  1   RLX: 0.608
       a = 11.000      CL =  1.6918
      Cm = -0.1264     CD =  0.04068   =>   CDf =  0.00751    CDp =  0.03317

 Side 1  free  transition at x/c =  0.2746   58
 Side 2 forced transition at x/c =  1.0001   66

   2   rms: 0.4318E-01   max: -.2710E+00   D at   58  1
       a = 11.000      CL =  1.7090
      Cm = -0.1244     CD =  0.04263   =>   CDf =  0.00722    CDp =  0.03541

 Side 1  free  transition at x/c =  0.2699   58
 Side 2 forced transition at x/c =  1.0001   65

   3   rms: 0.6041E-02   max: -.5647E-01   C at   58  1
       a = 11.000      CL =  1.7070
      Cm = -0.1243     CD =  0.04275   =>   CDf =  0.00748    CDp =  0.03527

 Side 1  free  transition at x/c =  0.2691   58
 Side 2 forced transition at x/c =  1.0001   65

   4   rms: 0.1104E-02   max: -.9741E-02   D at    4  1
       a = 11.000      CL =  1.7075
      Cm = -0.1244     CD =  0.04269   =>   CDf =  0.00745    CDp =  0.03525

 Side 1  free  transition at x/c =  0.2691   58
 Side 2 forced transition at x/c =  1.0001   65

   5   rms: 0.3589E-04   max: -.2783E-03   D at   76  2
       a = 11.000      CL =  1.7076
      Cm = -0.1244     CD =  0.04270   =>   CDf =  0.00745    CDp =  0.03525

 Point added to stored polar  1
 Point written to save file  000093M0.1.log                                  
 Dump file unspecified or not available
 Calculating wake trajectory ...
 Calculating source influence matrix ...

 Solving BL system ...

 Side 1  free  transition at x/c =  0.2691   58
 Side 2 forced transition at x/c =  1.0001   65

   1   rms: 0.1139E+00   max: 0.4010E+00   T at   58  1   RLX: 0.551
       a = 12.000      CL =  1.7301
      Cm = -0.1224     CD =  0.04629   =>   CDf =  0.00747    CDp =  0.03882

 Side 1  free  transition at x/c =  0.2592   58
 Side 2 forced transition at x/c =  1.0001   65

   2   rms: 0.4896E-01   max: -.2519E+00   D at   58  1
       a = 12.000      CL =  1.7511
      Cm = -0.1206     CD =  0.04854   =>   CDf =  0.00713    CDp =  0.04142

 Side 1  free  transition at x/c =  0.2544   58
 Side 2 forced transition at x/c =  1.0001   64

   3   rms: 0.5251E-02   max: -.4812E-01   C at   58  1
       a = 12.000      CL =  1.7488
      Cm = -0.1205     CD =  0.04861   =>   CDf =  0.00743    CDp =  0.04119

 Side 1  free  transition at x/c =  0.2535   58
 Side 2 forced transition at x/c =  1.0001   64

   4   rms: 0.1156E-02   max: -.9928E-02   D at    4  1
       a = 12.000      CL =  1.7494
      Cm = -0.1205     CD =  0.04855   =>   CDf =  0.00739    CDp =  0.04115

 Side 1  free  transition at x/c =  0.2535   58
 Side 2 forced transition at x/c =  1.0001   64

   5   rms: 0.3445E-04   max: -.2736E-03   D at   76  2
       a = 12.000      CL =  1.7495
      Cm = -0.1205     CD =  0.04855   =>   CDf =  0.00740    CDp =  0.04116

 Point added to stored polar  1
 Point written to save file  000093M0.1.log                                  
 Dump file unspecified or not available
 Calculating wake trajectory ...
 Calculating source influence matrix ...

 Solving BL system ...

 Side 1  free  transition at x/c =  0.2535   58
 Side 2 forced transition at x/c =  1.0001   64

   1   rms: 0.1118E+00   max: 0.3909E+00   T at   58  1   RLX: 0.504
       a = 13.000      CL =  1.7671
      Cm = -0.1190     CD =  0.05234   =>   CDf =  0.00742    CDp =  0.04492

 Side 1  free  transition at x/c =  0.2455   58
 Side 2 forced transition at x/c =  1.0001   64

   2   rms: 0.5294E-01   max: -.2157E+00   D at   58  1
       a = 13.000      CL =  1.7839
      Cm = -0.1173     CD =  0.05570   =>   CDf =  0.00700    CDp =  0.04870

 Side 1  free  transition at x/c =  0.2397   58
 Side 2 forced transition at x/c =  1.0001   63

   3   rms: 0.8380E-02   max: -.5952E-01   D at   82  1
       a = 13.000      CL =  1.7880
      Cm = -0.1171     CD =  0.05479   =>   CDf =  0.00734    CDp =  0.04745

 Side 1  free  transition at x/c =  0.2392   58
 Side 2 forced transition at x/c =  1.0001   63

   4   rms: 0.6448E-03   max: -.5305E-02   D at    4  1
       a = 13.000      CL =  1.7884
      Cm = -0.1171     CD =  0.05486   =>   CDf =  0.00735    CDp =  0.04752

 Side 1  free  transition at x/c =  0.2392   58
 Side 2 forced transition at x/c =  1.0001   63

   5   rms: 0.1167E-04   max: -.1049E-03   D at   76  2
       a = 13.000      CL =  1.7884
      Cm = -0.1171     CD =  0.05486   =>   CDf =  0.00735    CDp =  0.04752

 Point added to stored polar  1
 Point written to save file  000093M0.1.log                                  
 Dump file unspecified or not available
 Calculating wake trajectory ...
 Calculating source influence matrix ...

 Solving BL system ...

 Side 1  free  transition at x/c =  0.2392   58
 Side 2 forced transition at x/c =  1.0001   63

   1   rms: 0.1117E+00   max: -.4188E+00   C at   58  1   RLX: 0.462
       a = 14.000      CL =  1.7997
      Cm = -0.1160     CD =  0.05916   =>   CDf =  0.00737    CDp =  0.05180

 Side 1  free  transition at x/c =  0.2335   58
 Side 2 forced transition at x/c =  1.0001Got result {'DD': 0.015, 'Dmin': 0.01513, 'LL': -1.1638}
Completed successfully in 1.98 seconds. [{'DD': 0.015, 'Dmin': 0.01513, 'LL': -1.1638}]
   63

   2   rms: 0.5719E-01   max: 0.2054E+00   T at   58  1
       a = 14.000      CL =  1.8177
      Cm = -0.1146     CD =  0.06310   =>   CDf =  0.00684    CDp =  0.05626

 Side 1  free  transition at x/c =  0.2262   59
 Side 2 forced transition at x/c =  1.0001   62

   3   rms: 0.9819E-02   max: -.1036E+00   D at   59  1
       a = 14.000      CL =  1.8165
      Cm = -0.1143     CD =  0.06252   =>   CDf =  0.00717    CDp =  0.05536

 Side 1  free  transition at x/c =  0.2268   59
 Side 2 forced transition at x/c =  1.0001   62

   4   rms: 0.2424E-02   max: -.1132E-01   D at   81  1
       a = 14.000      CL =  1.8185
      Cm = -0.1144     CD =  0.06240   =>   CDf =  0.00714    CDp =  0.05526

 Side 1  free  transition at x/c =  0.2267   59
 Side 2 forced transition at x/c =  1.0001   62

   5   rms: 0.1343E-03   max: -.8815E-03   D at   76  2
       a = 14.000      CL =  1.8187
      Cm = -0.1144     CD =  0.06242   =>   CDf =  0.00715    CDp =  0.05528

 Side 1  free  transition at x/c =  0.2267   59
 Side 2 forced transition at x/c =  1.0001   62

   6   rms: 0.3059E-05   max: -.2103E-04   D at   76  2
       a = 14.000      CL =  1.8187
      Cm = -0.1144     CD =  0.06242   =>   CDf =  0.00715    CDp =  0.05528

 Point added to stored polar  1
 Point written to save file  000093M0.1.log                                  
 Dump file unspecified or not available
 Calculating wake trajectory ...
 Calculating source influence matrix ...

 Solving BL system ...

 Side 1  free  transition at x/c =  0.2267   59
 Side 2 forced transition at x/c =  1.0001   62

   1   rms: 0.1124E+00   max: 0.4406E+00   T at   59  1   RLX: 0.437
       a = 15.000      CL =  1.8414
      Cm = -0.1133     CD =  0.06473   =>   CDf =  0.00717    CDp =  0.05756

 Side 1  free  transition at x/c =  0.2221   58
 Side 2 forced transition at x/c =  1.0001   62

   2   rms: 0.6572E-01   max: 0.2897E+00   D at   79  1
       a = 15.000      CL =  1.8349
      Cm = -0.1123     CD =  0.07280   =>   CDf =  0.00678    CDp =  0.06601

 Side 1  free  transition at x/c =  0.2149   59
 Side 2 forced transition at x/c =  1.0001   61

   3   rms: 0.1291E-01   max: -.9492E-01   D at   82  1
       a = 15.000      CL =  1.8414
      Cm = -0.1120     CD =  0.07072   =>   CDf =  0.00688    CDp =  0.06383

 Side 1  free  transition at x/c =  0.2151   59
 Side 2 forced transition at x/c =  1.0001   61

   4   rms: 0.2094E-02   max: -.1007E-01   D at   75  2
       a = 15.000      CL =  1.8432
      Cm = -0.1121     CD =  0.07080   =>   CDf =  0.00688    CDp =  0.06391

 Side 1  free  transition at x/c =  0.2151   59
 Side 2 forced transition at x/c =  1.0001   61

   5   rms: 0.9079E-04   max: -.7260E-03   D at   75  2
       a = 15.000      CL =  1.8433
      Cm = -0.1121     CD =  0.07082   =>   CDf =  0.00689    CDp =  0.06393

 Point added to stored polar  1
 Point written to save file  000093M0.1.log                                  
 Dump file unspecified or not available

.OPERva   c>  
 XFOIL   c>  
