Job launching after 0.27 seconds in submission.
Running python job.
Changed into dir /home/simonx/Documents/Udacity/Projects/capstone/PESM_NSGA2_CST_XFoil
Importing evaluationFunctionXFoil.py
Running evaluationFunctionXFoil.main()
0
1
2
0.04
resp: 
 ===================================================
  XFOIL Version 6.97
  Copyright (C) 2000   Mark Drela, Harold Youngren

  This software comes with ABSOLUTELY NO WARRANTY,
    subject to the GNU General Public License.

  Caveat computor
 ===================================================

 File  xfoil.def  not found

   QUIT    Exit program

  .OPER    Direct operating point(s)
  .MDES    Complex mapping design routine
  .QDES    Surface speed design routine
  .GDES    Geometry design routine

   SAVE f  Write airfoil to labeled coordinate file
   PSAV f  Write airfoil to plain coordinate file
   ISAV f  Write airfoil to ISES coordinate file
   MSAV f  Write airfoil to MSES coordinate file
   REVE    Reverse written-airfoil node ordering
   DELI i  Change written-airfoil file delimiters

   LOAD f  Read buffer airfoil from coordinate file
   NACA i  Set NACA 4,5-digit airfoil and buffer airfoil
   INTE    Set buffer airfoil by interpolating two airfoils
   NORM    Buffer airfoil normalization toggle
   HALF    Halve the number of points in buffer airfoil
   XYCM rr Change CM reference location, currently  0.25000 0.00000

   BEND    Display structural properties of current airfoil

   PCOP    Set current-airfoil panel nodes directly from buffer airfoil points
   PANE    Set current-airfoil panel nodes ( 160 ) based on curvature
  .PPAR    Show/change paneling

  .PLOP    Plotting options

   WDEF f  Write  current-settings file
   RDEF f  Reread current-settings file
   NAME s  Specify new airfoil name
   NINC    Increment name version number

   Z       Zoom    | (available in all menus)
   U       Unzoom  | 

 XFOIL   c>   ...............................................

  G raphics-enable flag:        T
  S ize of plot object          10.00"
  A spect ratio of plot object   0.5500
  P age dimensions              11.00 x  8.50"
  M argins from page edges       0.00",  0.00"
  F ont size (relative)          0.0150
  W indow/screen size fraction   0.8000
  B lowup input method:        Cursor    
  O rientation of plot:        Landscape 
  C olor PostScript output?     F

      Option, Value   (or <Return>)    c>   ...............................................

  G raphics-enable flag:        F
  S ize of plot object          10.00"
  A spect ratio of plot object   0.5500
  P age dimensions              11.00 x  8.50"
  M argins from page edges       0.00",  0.00"
  F ont size (relative)          0.0150
  W indow/screen size fraction   0.8000
  B lowup input method:        Cursor    
  O rientation of plot:        Landscape 
  C olor PostScript output?     F

      Option, Value   (or <Return>)    c>  
 XFOIL   c>  
 Labeled airfoil file.  Name:  000141                                          

 Number of input coordinate points: 200
 Clockwise ordering
 Max thickness =     0.171695  at x =   0.157
 Max camber    =     0.028401  at x =   0.768

  LE  x,y  =  -0.00002  -0.00150  |   Chord =   0.99990
  TE  x,y  =   0.99988   0.00004  |

 Current airfoil nodes set from buffer airfoil nodes ( 200 )

 XFOIL   c>  
 You are working with the buffer airfoil

.GDES   c>  
  i       x        y      angle
   2   0.9990   0.0004    0.064
   3   0.9978   0.0008    0.145
   4   0.9961   0.0014    0.241
   5   0.9938   0.0022    0.274
   6   0.9911   0.0031    0.315
   7   0.9880   0.0042    0.359
   8   0.9843   0.0054    0.435
   9   0.9801   0.0067    0.453
  10   0.9755   0.0081    0.489
  11   0.9704   0.0097    0.546
  12   0.9649   0.0113    0.558
  13   0.9589   0.0130    0.598
  14   0.9524   0.0148    0.622
  15   0.9455   0.0166    0.643
  16   0.9382   0.0184    0.646
  17   0.9304   0.0202    0.670
  18   0.9222   0.0220    0.667
  19   0.9135   0.0239    0.676
  20   0.9045   0.0256    0.656
  21   0.8951   0.0274    0.661
  22   0.8853   0.0291    0.641
  23   0.8751   0.0308    0.622
  24   0.8645   0.0324    0.604
  25   0.8536   0.0339    0.570
  26   0.8423   0.0354    0.546
  27   0.8307   0.0368    0.514
  28   0.8187   0.0382    0.477
  29   0.8065   0.0395    0.441
  30   0.7939   0.0407    0.402
  31   0.7810   0.0418    0.363
  32   0.7679   0.0429    0.318
  33   0.7545   0.0439    0.286
  34   0.7409   0.0449    0.243
  35   0.7270   0.0459    0.203
  36   0.7129   0.0468    0.170
  37   0.6986   0.0477    0.130
  38   0.6841   0.0485    0.100
  39   0.6694   0.0494    0.068
  40   0.6545   0.0502    0.040
  41   0.6395   0.0510    0.018
  42   0.6243   0.0519   -0.005
  43   0.6091   0.0527   -0.022
  44   0.5937   0.0536   -0.033
  45   0.5782   0.0544   -0.043
  46   0.5627   0.0553   -0.049
  47   0.5471   0.0562   -0.049
  48   0.5314   0.0572   -0.048
  49   0.5157   0.0581   -0.037
  50   0.5000   0.0590   -0.029
  51   0.4843   0.0600   -0.014
  52   0.4686   0.0609    0.008
  53   0.4529   0.0619    0.026
  54   0.4373   0.0628    0.056
  55   0.4218   0.0638    0.083
  56   0.4063   0.0647    0.114
  57   0.3909   0.0655    0.149
  58   0.3757   0.0663    0.187
  59   0.3605   0.0671    0.225
  60   0.3455   0.0678    0.266
  61   0.3306   0.0684    0.308
  62   0.3159   0.0689    0.353
  63   0.3014   0.0694    0.396
  64   0.2871   0.0697    0.439
  65   0.2730   0.0699    0.493
  66   0.2591   0.0700    0.531
  67   0.2455   0.0700    0.580
  68   0.2321   0.0698    0.630
  69   0.2190   0.0695    0.675
  70   0.2061   0.0690    0.725
  71   0.1935   0.0684    0.767
  72   0.1813   0.0677    0.823
  73   0.1693   0.0668    0.866
  74   0.1577   0.0657    0.915
  75   0.1464   0.0645    0.969
  76   0.1355   0.0632    1.021
  77   0.1249   0.0616    1.075
  78   0.1147   0.0600    1.142
  79   0.1049   0.0582    1.196
  80   0.0955   0.0563    1.268
  81   0.0865   0.0542    1.355
  82   0.0778   0.0521    1.435
  83   0.0696   0.0498    1.536
  84   0.0618   0.0474    1.658
  85   0.0545   0.0449    1.788
  86   0.0476   0.0423    1.949
  87   0.0411   0.0396    2.140
  88   0.0351   0.0368    2.363
  89   0.0296   0.0340    2.630
  90   0.0245   0.0311    2.952
  91   0.0199   0.0282    3.350
  92   0.0157   0.0252    3.809
  93   0.0120   0.0221    4.346
  94   0.0089   0.0190    5.032
  95   0.0062   0.0159    5.757
  96   0.0039   0.0127    6.560
  97   0.0022   0.0096    7.394
  98   0.0010   0.0064    8.113
  99   0.0002   0.0032    8.627
 100   0.0000   0.0000    6.246
 101   0.0002  -0.0077    3.673
 102   0.0010  -0.0154    3.713
 103   0.0022  -0.0230    3.792
 104   0.0039  -0.0305    3.877
 105   0.0062  -0.0377    3.991
 106   0.0089  -0.0448    4.127
 107   0.0120  -0.0517    4.246
 108   0.0157  -0.0582    4.391
 109   0.0199  -0.0644    4.505
 110   0.0245  -0.0703    4.584
 111   0.0296  -0.0758    4.638
 112   0.0351  -0.0809    4.651
 113   0.0411  -0.0856    4.596
 114   0.0476  -0.0899    4.504
 115   0.0545  -0.0937    4.333
 116   0.0618  -0.0971    4.136
 117   0.0696  -0.0999    3.906
 118   0.0778  -0.1024    3.626
 119   0.0865  -0.1044    3.364
 120   0.0955  -0.1059    3.066
 121   0.1049  -0.1069    2.797
 122   0.1147  -0.1076    2.507
 123   0.1249  -0.1078    2.257
 124   0.1355  -0.1076    2.005
 125   0.1464  -0.1070    1.775
 126   0.1577  -0.1060    1.567
 127   0.1693  -0.1047    1.361
 128   0.1813  -0.1030    1.184
 129   0.1935  -0.1011    1.025
 130   0.2061  -0.0989    0.870
 131   0.2190  -0.0964    0.737
 132   0.2321  -0.0937    0.614
 133   0.2455  -0.0908    0.498
 134   0.2591  -0.0877    0.404
 135   0.2730  -0.0845    0.307
 136   0.2871  -0.0811    0.233
 137   0.3014  -0.0776    0.157
 138   0.3159  -0.0740    0.097
 139   0.3306  -0.0704    0.037
 140   0.3455  -0.0667   -0.013
 141   0.3605  -0.0629   -0.055
 142   0.3757  -0.0592   -0.093
 143   0.3909  -0.0554   -0.132
 144   0.4063  -0.0517   -0.156
 145   0.4218  -0.0480   -0.179
 146   0.4373  -0.0443   -0.208
 147   0.4529  -0.0406   -0.225
 148   0.4686  -0.0370   -0.237
 149   0.4843  -0.0335   -0.259
 150   0.5000  -0.0300   -0.272
 151   0.5157  -0.0267   -0.282
 152   0.5314  -0.0234   -0.296
 153   0.5471  -0.0202   -0.309
 154   0.5627  -0.0170   -0.317
 155   0.5782  -0.0140   -0.340
 156   0.5937  -0.0111   -0.344
 157   0.6091  -0.0084   -0.369
 158   0.6243  -0.0057   -0.377
 159   0.6395  -0.0032   -0.400
 160   0.6545  -0.0007   -0.417
 161   0.6694   0.0015   -0.440
 162   0.6841   0.0037   -0.460
 163   0.6986   0.0057   -0.484
 164   0.7129   0.0075   -0.508
 165   0.7270   0.0092   -0.535
 166   0.7409   0.0107   -0.560
 167   0.7545   0.0121   -0.588
 168   0.7679   0.0133   -0.617
 169   0.7810   0.0143   -0.643
 170   0.7939   0.0152   -0.665
 171   0.8065   0.0159   -0.695
 172   0.8187   0.0164   -0.720
 173   0.8307   0.0168   -0.743
 174   0.8423   0.0170   -0.761
 175   0.8536   0.0170   -0.783
 176   0.8645   0.0169   -0.797
 177   0.8751   0.0167   -0.805
 178   0.8853   0.0163   -0.815
 179   0.8951   0.0158   -0.829
 180   0.9045   0.0152   -0.815
 181   0.9135   0.0145   -0.815
 182   0.9222   0.0137   -0.810
 183   0.9304   0.0128   -0.800
 184   0.9382   0.0118   -0.766
 185   0.9455   0.0108   -0.762
 186   0.9524   0.0098   -0.719
 187   0.9589   0.0087   -0.700
 188   0.9649   0.0077   -0.653
 189   0.9704   0.0067   -0.616
 190   0.9755   0.0057   -0.583
 191   0.9801   0.0047   -0.515
 192   0.9843   0.0038   -0.483
 193   0.9880   0.0030   -0.426
 194   0.9911   0.0022   -0.364
 195   0.9938   0.0016   -0.308
 196   0.9961   0.0010   -0.246
 197   0.9978   0.0006   -0.212
 198   0.9990   0.0003   -0.058
 199   0.9998   0.0001   -0.126

 Maximum panel corner angle =  8.627   at  i,x,y  =  99   0.0002   0.0032

 Enter corner angle criterion for refinement (deg):   4.313
 Enter type of spline parameter (1=uniform, 2=arclength):   1
 Enter refinement x limits:  -0.10000   1.10000
 Number of points added:           32
 Max thickness =     0.171722  at x =   0.158
 Max camber    =     0.028031  at x =   0.768

 Maximum panel corner angle =  4.642   at  i,x,y  = 113   0.0001   0.0024

.GDES   c>  
 Buffer airfoil is not identical to current airfoil

 XFOIL   c>  
 Blunt trailing edge.  Gap =  0.00026

 Paneling parameters used...
   Number of panel nodes       160
   Panel bunching parameter    1.000
   TE/LE panel density ratio   0.150
   Refined-area/LE panel density ratio    0.200
   Top    side refined area x/c limits  1.000 1.000
   Bottom side refined area x/c limits  1.000 1.000

 XFOIL   c>  
Enter output filename   s>  
 XFOIL   c>  
.OPERi   c>   Current iteration limit:          20

Enter new iteration limit   i>  
Enter new iteration limit   i>  
Enter new iteration limit   i>  
.OPERi   c>  
 M  =    0.0000
 Re =  0.3000E+06

.OPERv   c>  
 Sonic Cp =   -420.65      Sonic Q/Qinf =    22.825


.OPERv   c>  
 Polar  1 newly created for accumulation
 Airfoil archived with polar: 000141                                          

Enter  polar save filename  OR  <return> for no file   s>  
 New polar save file available

Enter  polar dump filename  OR  <return> for no file   s>  
 Polar dump file will NOT be written

 Polar accumulation enabled

.OPERva   c>   Calculating unit vorticity distributions ...
 Calculating wake trajectory ...
 Calculating source influence matrix ...

 Solving BL system ...

 Initializing BL ...
    side            1  ...
 MRCHUE: Inverse mode at  46     Hk =   4.334
 MRCHUE: Inverse mode at  47     Hk =   5.201
 MRCHUE: Inverse mode at  48     Hk =   6.086
 MRCHUE: Inverse mode at  49     Hk =   6.993
 MRCHUE: Inverse mode at  50     Hk =   7.925
 MRCHUE: Inverse mode at  51     Hk =   7.143
 MRCHUE: Inverse mode at  52     Hk =   3.116
    side            2  ...
 MRCHUE: Inverse mode at  35     Hk =   4.133
 MRCHUE: Inverse mode at  36     Hk =   4.892
 MRCHUE: Inverse mode at  37     Hk =   5.667
 MRCHUE: Inverse mode at  38     Hk =   6.467
 MRCHUE: Inverse mode at  39     Hk =   7.302
 MRCHUE: Inverse mode at  40     Hk =   8.181
 MRCHUE: Inverse mode at  41     Hk =   9.111
 MRCHUE: Inverse mode at  42     Hk =   8.041
 MRCHUE: Inverse mode at  43     Hk =   4.002
 MRCHUE: Inverse mode at  44     Hk =   2.500
 MRCHUE: Inverse mode at  81     Hk =   1.982
 MRCHUE: Inverse mode at  82     Hk =   1.949

 Side 1  free  transition at x/c =  0.2830   51
 Side 2  free  transition at x/c =  0.2482   42

   1   rms: 0.1477E+00   max: -.9276E+00   T at   51  1   RLX: 0.539
       a =  2.000      CL =  0.6760
      Cm = -0.1665     CD =  0.01705   =>   CDf =  0.00858    CDp =  0.00847

 Side 1  free  transition at x/c =  0.3057   51
 Side 2  free  transition at x/c =  0.2433   43

   2   rms: 0.8335E-01   max: -.6362E+00   T at   51  1   RLX: 0.786
       a =  2.000      CL =  0.6254
      Cm = -0.1543     CD =  0.01577   =>   CDf =  0.00839    CDp =  0.00738

 Side 1  free  transition at x/c =  0.3366   53
 Side 2  free  transition at x/c =  0.2391   43

   3   rms: 0.3086E-01   max: 0.2771E+00   D at   53  1
       a =  2.000      CL =  0.6069
      Cm = -0.1496     CD =  0.01516   =>   CDf =  0.00818    CDp =  0.00698

 Side 1  free  transition at x/c =  0.3486   53
 Side 2  free  transition at x/c =  0.2377   43

   4   rms: 0.3507E-02   max: 0.3626E-01   C at   53  1
       a =  2.000      CL =  0.6054
      Cm = -0.1493     CD =  0.01538   =>   CDf =  0.00808    CDp =  0.00730

 Side 1  free  transition at x/c =  0.3474   53
 Side 2  free  transition at x/c =  0.2373   43

   5   rms: 0.7478E-04   max: -.8964E-03   D at   54  1
       a =  2.000      CL =  0.6053
      Cm = -0.1493     CD =  0.01539   =>   CDf =  0.00811    CDp =  0.00728

 Point added to stored polar  1
 Point written to save file  000141M0.04.log                                 
 Dump file unspecified or not available
 Calculating wake trajectory ...
 Calculating source influence matrix ...

 Solving BL system ...

 Side 1  free  transition at x/c =  0.3474   53
 Side 2  free  transition at x/c =  0.2373   43

   1   rms: 0.1670E+00   max: -.8024E+00   T at   43  2   RLX: 0.623
       a =  3.000      CL =  0.6831
      Cm = -0.1495     CD =  0.01490   =>   CDf =  0.00803    CDp =  0.00686

 Side 1  free  transition at x/c =  0.3147   53
 Side 2  free  transition at x/c =  0.2491   42

   2   rms: 0.7875E-01   max: -.6259E+00   D at   53  1   RLX: 0.799
       a =  3.000      CL =  0.7176
      Cm = -0.1486     CD =  0.01574   =>   CDf =  0.00813    CDp =  0.00761

 Side 1  free  transition at x/c =  0.3042   52
 Side 2  free  transition at x/c =  0.2526   42

   3   rms: 0.2022E-01   max: -.1922E+00   D at   53  1
       a =  3.000      CL =  0.7270
      Cm = -0.1484     CD =  0.01569   =>   CDf =  0.00820    CDp =  0.00749

 Side 1  free  transition at x/c =  0.2969   52
 Side 2  free  transition at x/c =  0.2532   43

   4   rms: 0.1246E-02   max: -.1219E-01   D at   52  1
       a =  3.000      CL =  0.7268
      Cm = -0.1485     CD =  0.01576   =>   CDf =  0.00822    CDp =  0.00754

 Side 1  free  transition at x/c =  0.2971   52
 Side 2  free  transition at x/c =  0.2532   43

   5   rms: 0.2385E-04   max: 0.1598E-03   T at   43  2
       a =  3.000      CL =  0.7268
      Cm = -0.1485     CD =  0.01576   =>   CDf =  0.00821    CDp =  0.00754

 Point added to stored polar  1
 Point written to save file  000141M0.04.log                                 
 Dump file unspecified or not available
 Calculating wake trajectory ...
 Calculating source influence matrix ...

 Solving BL system ...

 Side 1  free  transition at x/c =  0.2971   52
 Side 2  free  transition at x/c =  0.2532   43

   1   rms: 0.2243E+00   max: -.1008E+01   T at   43  2   RLX: 0.496
       a =  4.000      CL =  0.7918
      Cm = -0.1496     CD =  0.01486   =>   CDf =  0.00812    CDp =  0.00674

 Side 1  free  transition at x/c =  0.2723   52
 Side 2  free  transition at x/c =  0.2717   42

   2   rms: 0.8522E-01   max: -.6903E+00   D at   52  1   RLX: 0.724
       a =  4.000      CL =  0.8313
      Cm = -0.1480     CD =  0.01592   =>   CDf =  0.00807    CDp =  0.00785

 Side 1  free  transition at x/c =  0.2572   52
 Side 2  free  transition at x/c =  0.2724   42

   3   rms: 0.3008E-01   max: -.3481E+00   D at   53  1
       a =  4.000      CL =  0.8479
      Cm = -0.1474     CD =  0.01606   =>   CDf =  0.00824    CDp =  0.00782

 Side 1  free  transition at x/c =  0.2471   51
 Side 2  free  transition at x/c =  0.2723   42

   4   rms: 0.2549E-02   max: -.2868E-01   C at   51  1
       a =  4.000      CL =  0.8471
      Cm = -0.1474     CD =  0.01628   =>   CDf =  0.00834    CDp =  0.00794

 Side 1  free  transition at x/c =  0.2468   51
 Side 2  free  transition at x/c =  0.2721   42

   5   rms: 0.2752E-04   max: 0.3203E-03   C at   51  1
       a =  4.000      CL =  0.8471
      Cm = -0.1474     CD =  0.01628   =>   CDf =  0.00834    CDp =  0.00794

 Point added to stored polar  1
 Point written to save file  000141M0.04.log                                 
 Dump file unspecified or not available
 Calculating wake trajectory ...
 Calculating source influence matrix ...

 Solving BL system ...

 Side 1  free  transition at x/c =  0.2468   51
 Side 2  free  transition at x/c =  0.2721   42

   1   rms: 0.2324E+00   max: -.1014E+01   T at   42  2   RLX: 0.493
       a =  5.000      CL =  0.9138
      Cm = -0.1486     CD =  0.01524   =>   CDf =  0.00820    CDp =  0.00704

 Side 1  free  transition at x/c =  0.2188   51
 Side 2  free  transition at x/c =  0.2951   42

   2   rms: 0.7879E-01   max: -.5902E+00   D at   51  1   RLX: 0.847
       a =  5.000      CL =  0.9589
      Cm = -0.1466     CD =  0.01660   =>   CDf =  0.00831    CDp =  0.00829

 Side 1  free  transition at x/c =  0.2007   50
 Side 2  free  transition at x/c =  0.2957   42

   3   rms: 0.2589E-01   max: -.3247E+00   D at   50  1
       a =  5.000      CL =  0.9669
      Cm = -0.1461     CD =  0.01677   =>   CDf =  0.00834    CDp =  0.00843

 Side 1  free  transition at x/c =  0.1962   50
 Side 2  free  transition at x/c =  0.2952   42

   4   rms: 0.2678E-02   max: -.4034E-01   D at   51  1
       a =  5.000      CL =  0.9662
      Cm = -0.1461     CD =  0.01697   =>   CDf =  0.00839    CDp =  0.00858

 Side 1  free  transition at x/c =  0.1954   49
 Side 2  free  transition at x/c =  0.2951   42

   5   rms: 0.4840E-03   max: -.8394E-02   C at   49  1
       a =  5.000      CL =  0.9663
      Cm = -0.1461     CD =  0.01696   =>   CDf =  0.00841    CDp =  0.00855

 Side 1  free  transition at x/c =  0.1953   49
 Side 2  free  transition at x/c =  0.2951   42

   6   rms: 0.2626E-05   max: 0.1517E-04   C at   49  1
       a =  5.000      CL =  0.9663
      Cm = -0.1461     CD =  0.01696   =>   CDf =  0.00841    CDp =  0.00855

 Point added to stored polar  1
 Point written to save file  000141M0.04.log                                 
 Dump file unspecified or not available
 Calculating wake trajectory ...
 Calculating source influence matrix ...

 Solving BL system ...

 Side 1  free  transition at x/c =  0.1953   49
 Side 2  free  transition at x/c =  0.2951   42

   1   rms: 0.1801E+00   max: -.8309E+00   T at   42  2   RLX: 0.602
       a =  6.000      CL =  1.0431
      Cm = -0.1461     CD =  0.01669   =>   CDf =  0.00824    CDp =  0.00845

 Side 1  free  transition at x/c =  0.1638   48
 Side 2  free  transition at x/c =  0.3140   41

   2   rms: 0.6990E-01   max: -.5350E+00   C at   48  1   RLX: 0.935
       a =  6.000      CL =  1.0813
      Cm = -0.1443     CD =  0.01804   =>   CDf =  0.00833    CDp =  0.00971

 Side 1  free  transition at x/c =  0.1474   48
 Side 2  free  transition at x/c =  0.3219   41

   3   rms: 0.2022E-01   max: -.2313E+00   D at   48  1
       a =  6.000      CL =  1.0836
      Cm = -0.1444     CD =  0.01800   =>   CDf =  0.00849    CDp =  0.00951

 Side 1  free  transition at x/c =  0.1466   48
 Side 2  free  transition at x/c =  0.3224   41

   4   rms: 0.2758E-02   max: 0.3066E-01   C at   48  1
       a =  6.000      CL =  1.0833
      Cm = -0.1444     CD =  0.01808   =>   CDf =  0.00843    CDp =  0.00965

 Side 1  free  transition at x/c =  0.1460   48
 Side 2  free  transition at x/c =  0.3222   41

   5   rms: 0.3384E-04   max: -.4970E-03   D at   49  1
       a =  6.000      CL =  1.0833
      Cm = -0.1444     CD =  0.01808   =>   CDf =  0.00844    CDp =  0.00964

 Point added to stored polar  1
 Point written to save file  000141M0.04.log                                 
 Dump file unspecified or not available
 Calculating wake trajectory ...
 Calculating source influence matrix ...

 Solving BL system ...

 Side 1  free  transition at x/c =  0.1460   48
 Side 2  free  transition at x/c =  0.3222   41

   1   rms: 0.1767E+00   max: -.9037E+00   D at   49  1   RLX: 0.553
       a =  7.000      CL =  1.1465
      Cm = -0.1432     CD =  0.01890   =>   CDf =  0.00823    CDp =  0.01067

 Side 1  free  transition at x/c =  0.1252   47
 Side 2  free  transition at x/c =  0.3363   40

   2   rms: 0.8746E-01   max: 0.5263E+00   T at   47  1
       a =  7.000      CL =  1.1958
      Cm = -0.1416     CD =  0.02001   =>   CDf =  0.00860    CDp =  0.01142

 MRCHDU: Convergence failed at  41  side 2    Res =  0.3194E+01
 MRCHDU: Convergence failed at  42  side 2    Res =  0.2530E+01
 MRCHDU: Convergence failed at  43  side 2    Res =  0.3210E+02
 MRCHDU: Convergence failed at  44  side 2    Res =  0.1834E+02
 MRCHDU: Convergence failed at  45  side 2    Res =  0.1567E+02
 MRCHDU: Convergence failed at  46  side 2    Res =  0.1675E+02
 MRCHDU: Convergence failed at  47  side 2    Res =  0.2156E+02
 MRCHDU: Convergence failed at  48  side 2    Res =  0.3279E+02
 MRCHDU: Convergence failed at  49  side 2    Res =  0.6465E+02
 MRCHDU: Convergence failed at  50  side 2    Res =  0.6118E+03
 MRCHDU: Convergence failed at  51  side 2    Res =  0.9621E+02
 MRCHDU: Convergence failed at  52  side 2    Res =  0.4783E+02
 MRCHDU: Convergence failed at  53  side 2    Res =  0.3207E+02
 MRCHDU: Convergence failed at  54  side 2    Res =  0.2528E+02
 MRCHDU: Convergence failed at  55  side 2    Res =  0.2107E+02
 MRCHDU: Convergence failed at  56  side 2    Res =  0.1855E+02
 MRCHDU: Convergence failed at  57  side 2    Res =  0.1676E+02
 MRCHDU: Convergence failed at  58  side 2    Res =  0.1554E+02
 MRCHDU: Convergence failed at  59  side 2    Res =  0.1464E+02
 MRCHDU: Convergence failed at  60  side 2    Res =  0.1403E+02
 MRCHDU: Convergence failed at  61  side 2    Res =  0.1363E+02
 MRCHDU: Convergence failed at  62  side 2    Res =  0.1342E+02
 MRCHDU: Convergence failed at  63  side 2    Res =  0.1340E+02
 MRCHDU: Convergence failed at  64  side 2    Res =  0.1357E+02
 MRCHDU: Convergence failed at  65  side 2    Res =  0.1397E+02
 MRCHDU: Convergence failed at  66  side 2    Res =  0.1469E+02
 MRCHDU: Convergence failed at  67  side 2    Res =  0.1581E+02
 MRCHDU: Convergence failed at  68  side 2    Res =  0.1774E+02
 MRCHDU: Convergence failed at  69  side 2    Res =  0.2121E+02
 MRCHDU: Convergence failed at  70  side 2    Res =  0.2774E+02
 MRCHDU: Convergence failed at  71  side 2    Res =  0.4558E+02
 MRCHDU: Convergence failed at  72  side 2    Res =  0.6253E+02
 Side 1  free  transition at x/c =  0.1078   45
 Side 2  free  transition at x/c =  0.3544   41

   3   rms: 0.3101E+00   max: 0.1343E+01   T at   63  2   RLX: 0.831
       a =  7.000      CL =  1.1448
      Cm = -0.1235     CD =  0.01942   =>   CDf =  0.00678    CDp =  0.01265

 Side 1  free  transition at x/c =  0.1122   46
 Side 2  free  transition at x/c =  0.3405   41

   4   rms: 0.6377E-01   max: -.6167E+00   T at   41  2   RLX: 0.811
       a =  7.000      CL =  1.1913
      Cm = -0.1396     CD =  0.01974   =>   CDf =  0.00880    CDp =  0.01094

 Side 1  free  transition at x/c =  0.1089   45
 Side 2  free  transition at x/c =  0.3503   41

   5   rms: 0.3298E-01   max: -.4100E+00   D at   41  2
       a =  7.000      CL =  1.1964
      Cm = -0.1420     CD =  0.01986   =>   CDf =  0.00861    CDp =  0.01125

 Side 1  free  transition at x/c =  0.1081   45
 Side 2  free  transition at x/c =  0.3557   41

   6   rms: 0.2754E-02   max: 0.3002E-01   D at   41  2
       a =  7.000      CL =  1.1961
      Cm = -0.1419     CD =  0.01985   =>   CDf =  0.00853    CDp =  0.01132

 Side 1  free  transition at x/c =  0.1081   45
 Side 2  free  transition at x/c =  0.3547   41

   7   rms: 0.3227E-04   max: -.3537E-03   D at   42  2
       a =  7.000      CL =  1.1961
      Cm = -0.1419     CD =  0.01985   =>   CDf =  0.00854    CDp =  0.01131

 Point added to stored polar  1
 Point written to save file  000141M0.04.log                                 
 Dump file unspecified or not available
 Calculating wake trajectory ...
 Calculating source influence matrix ...

 Solving BL system ...

 Side 1  free  transition at x/c =  0.1081   45
 Side 2  free  transition at x/c =  0.3546   41

   1   rms: 0.1620E+00   max: 0.9778E+00   T at   45  1   RLX: 0.696
       a =  8.000      CL =  1.2747
      Cm = -0.1397     CD =  0.02076   =>   CDf =  0.00828    CDp =  0.01249

 Side 1  free  transition at x/c =  0.0896   44
 Side 2  free  transition at x/c =  0.3833   41

   2   rms: 0.8221E-01   max: -.6827E+00   D at   45  1   RLX: 0.732
       a =  8.000      CL =  1.2947
      Cm = -0.1388     CD =  0.02182   =>   CDf =  0.00852    CDp =  0.01330

 Side 1  free  transition at x/c =  0.0867   44
 Side 2  free  transition at x/c =  0.3896   42

   3   rms: 0.3195E-01   max: -.3694E+00   D at   45  1
       a =  8.000      CL =  1.3060
      Cm = -0.1390     CD =  0.02165   =>   CDf =  0.00820    CDp =  0.01345

 Side 1  free  transition at x/c =  0.0845   45
 Side 2  free  transition at x/c =  0.3978   41

   4   rms: 0.7756E-02   max: -.8520E-01   D at   46  1
       a =  8.000      CL =  1.3036
      Cm = -0.1387     CD =  0.02207   =>   CDf =  0.00849    CDp =  0.01358

 Side 1  free  transition at x/c =  0.0841   44
 Side 2  free  transition at x/c =  0.3951   41

   5   rms: 0.1189E-02   max: -.1575E-01   C at   44  1
       a =  8.000      CL =  1.3038
      Cm = -0.1387     CD =  0.02203   =>   CDf =  0.00853    CDp =  0.01350

 Side 1  free  transition at x/c =  0.0841   44
 Side 2  free  transition at x/c =  0.3951   41

   6   rms: 0.1241E-04   max: 0.1116E-03   D at   44  1
       a =  8.000      CL =  1.3038
      Cm = -0.1387     CD =  0.02203   =>   CDf =  0.00852    CDp =  0.01351

 Point added to stored polar  1
 Point written to save file  000141M0.04.log                                 
 Dump file unspecified or not available
 Calculating wake trajectory ...
 Calculating source influence matrix ...

 Solving BL system ...

 Side 1  free  transition at x/c =  0.0841   44
 Side 2  free  transition at x/c =  0.3951   41

   1   rms: 0.1716E+00   max: 0.1021E+01   T at   44  1   RLX: 0.587
       a =  9.000      CL =  1.3706
      Cm = -0.1370     CD =  0.02280   =>   CDf =  0.00854    CDp =  0.01426

 Side 1  free  transition at x/c =  0.0730   43
 Side 2  free  transition at x/c =  0.4174   42

   2   rms: 0.1214E+00   max: -.8565E+00   T at   42  2   RLX: 0.584
       a =  9.000      CL =  1.3931
      Cm = -0.1363     CD =  0.02450   =>   CDf =  0.00826    CDp =  0.01624

 Side 1  free  transition at x/c =  0.0705   43
 Side 2  free  transition at x/c =  0.4360   41

   3   rms: 0.4473E-01   max: -.3354E+00   D at   44  1
       a =  9.000      CL =  1.4064
      Cm = -0.1345     CD =  0.02440   =>   CDf =  0.00853    CDp =  0.01587

 Side 1  free  transition at x/c =  0.0692   43
 Side 2  free  transition at x/c =  0.4519   42

   4   rms: 0.1112E-01   max: 0.1683E+00   D at   42  2
       a =  9.000      CL =  1.4064
      Cm = -0.1346     CD =  0.02453   =>   CDf =  0.00829    CDp =  0.01624

 Side 1  free  transition at x/c =  0.0689   43
 Side 2  free  transition at x/c =  0.4493   42

   5   rms: 0.1030E-02   max: 0.1259E-01   C at   42  2
       a =  9.000      CL =  1.4064
      Cm = -0.1346     CD =  0.02453   =>   CDf =  0.00831    CDp =  0.01622

 Side 1  free  transition at x/c =  0.0689   43
 Side 2  free  transition at x/c =  0.4487   42

   6   rms: 0.1020E-04   max: -.1588E-03   D at   43  2
       a =  9.000      CL =  1.4064
      Cm = -0.1346     CD =  0.02453   =>   CDf =  0.00831    CDp =  0.01622

 Point added to stored polar  1
 Point written to save file  000141M0.04.log                                 
 Dump file unspecified or not available
 Calculating wake trajectory ...
 Calculating source influence matrix ...

 Solving BL system ...

 Side 1  free  transition at x/c =  0.0689   43
 Side 2  free  transition at x/c =  0.4487   42

   1   rms: 0.1618E+00   max: 0.8141E+00   T at   43  1   RLX: 0.635
       a = 10.000      CL =  1.4720
      Cm = -0.1319     CD =  0.02599   =>   CDf =  0.00798    CDp =  0.01801

 Side 1  free  transition at x/c =  0.0619   43
 Side 2  free  transition at x/c =  0.4870   42

   2   rms: 0.5789E-01   max: -.4331E+00   T at   42  2
       a = 10.000      CL =  1.5000
      Cm = -0.1290     CD =  0.02750   =>   CDf =  0.00831    CDp =  0.01920

 Side 1  free  transition at x/c =  0.0587   43
 Side 2  free  transition at x/c =  0.5297   44

   3   rms: 0.2583E-01   max: -.2534E+00   C at   44  2
       a = 10.000      CL =  1.5005
      Cm = -0.1294     CD =  0.02746   =>   CDf =  0.00817    CDp =  0.01929

 Side 1  free  transition at x/c =  0.0592   43
 Side 2  free  transition at x/c =  0.5291   44

   4   rms: 0.3651E-02   max: 0.6255E-01   C at   44  2
       a = 10.000      CL =  1.5007
      Cm = -0.1294     CD =  0.02752   =>   CDf =  0.00803    CDp =  0.01950

 Side 1  free  transition at x/c =  0.0591   43
 Side 2  free  transition at x/c =  0.5268   44

   5   rms: 0.7599E-04   max: -.1294E-02   D at   46  2
       a = 10.000      CL =  1.5007
      Cm = -0.1294     CD =  0.02752   =>   CDf =  0.00804    CDp =  0.01948

 Point added to stored polar  1
 Point written to save file  000141M0.04.log                                 
 Dump file unspecified or not available
 Calculating wake trajectory ...
 Calculating source influence matrix ...

 Solving BL system ...

 Side 1  free  transition at x/c =  0.0591   43
 Side 2  free  transition at x/c =  0.5267   44

   1   rms: 0.1668E+00   max: 0.8151E+00   T at   43  1   RLX: 0.632
       a = 11.000      CL =  1.5497
      Cm = -0.1248     CD =  0.03045   =>   CDf =  0.00768    CDp =  0.02276

 MRCHDU: Convergence failed at  44  side 1    Res =  0.7760E+01
 MRCHDU: Convergence failed at  45  side 1    Res =  0.3578E+01
 MRCHDU: Convergence failed at  46  side 1    Res =  0.2715E+01
 MRCHDU: Convergence failed at  47  side 1    Res =  0.3035E+01
 MRCHDU: Convergence failed at  48  side 1    Res =  0.3821E+01
 MRCHDU: Convergence failed at  49  side 1    Res =  0.4829E+01
 MRCHDU: Convergence failed at  50  side 1    Res =  0.6604E+01
 MRCHDU: Convergence failed at  51  side 1    Res =  0.9672E+01
 MRCHDU: Convergence failed at  52  side 1    Res =  0.1736E+02
 MRCHDU: Convergence failed at  53  side 1    Res =  0.4837E+02
 MRCHDU: Convergence failed at  54  side 1    Res =  0.1195E+03
 MRCHDU: Convergence failed at  55  side 1    Res =  0.3275E+02
 MRCHDU: Convergence failed at  56  side 1    Res =  0.2166E+02
 MRCHDU: Convergence failed at  57  side 1    Res =  0.1794E+02
 MRCHDU: Convergence failed at  58  side 1    Res =  0.1660E+02
 MRCHDU: Convergence failed at  59  side 1    Res =  0.1649E+02
 MRCHDU: Convergence failed at  60  side 1    Res =  0.1730E+02
 MRCHDU: Convergence failed at  61  side 1    Res =  0.2056E+02
 MRCHDU: Convergence failed at  62  side 1    Res =  0.3424E+02
 MRCHDU: Convergence failed at  63  side 1    Res =  0.3091E+02
 MRCHDU: Convergence failed at  64  side 1    Res =  0.3945E+02
 MRCHDU: Convergence failed at  65  side 1    Res =  0.1662E+02
 MRCHDU: Convergence failed at  66  side 1    Res =  0.5990E+02
 MRCHDU: Convergence failed at  67  side 1    Res =  0.1957E+02
 MRCHDU: Convergence failed at  68  side 1    Res =  0.8620E+02
 MRCHDU: Convergence failed at  69  side 1    Res =  0.1723E+03
 MRCHDU: Convergence failed at  70  side 1    Res =  0.9815E+02
 MRCHDU: Convergence failed at  71  side 1    Res =  0.7177E+02
 MRCHDU: Convergence failed at  72  side 1    Res =  0.5906E+02
 MRCHDU: Convergence failed at  73  side 1    Res =  0.1183E+04
 MRCHDU: Convergence failed at  74  side 1    Res =  0.3390E+03
 MRCHDU: Convergence failed at  75  side 1    Res =  0.2191E+03
 MRCHDU: Convergence failed at  76  side 1    Res =  0.1701E+03
 MRCHDU: Convergence failed at  77  side 1    Res =  0.1390E+03
 MRCHDU: Convergence failed at  78  side 1    Res =  0.1168E+03
 MRCHDU: Convergence failed at  79  side 1    Res =  0.6775E+03
 MRCHDU: Convergence failed at  80  side 1    Res =  0.9472E+03
 MRCHDU: Convergence failed at  81  side 1    Res =  0.2523E+03
 MRCHDU: Convergence failed at  82  side 1    Res =  0.1376E+03
 MRCHDU: Convergence failed at  83  side 1    Res =  0.9072E+02
 MRCHDU: Convergence failed at  84  side 1    Res =  0.6592E+02
 MRCHDU: Convergence failed at  85  side 1    Res =  0.6601E+02
 MRCHDU: Convergence failed at  86  side 1    Res =  0.5064E+02
 MRCHDU: Convergence failed at  87  side 1    Res =  0.4132E+02
 MRCHDU: Convergence failed at  88  side 1    Res =  0.2029E+02
 MRCHDU: Convergence failed at  89  side 1    Res =  0.4424E+02
 MRCHDU: Convergence failed at  90  side 1    Res =  0.6493E+02
 MRCHDU: Convergence failed at  91  side 1    Res =  0.5403E+02
 MRCHDU: Convergence failed at  92  side 1    Res =  0.6845E+02
 MRCHDU: Convergence failed at  93  side 1    Res =  0.1049E+03
 MRCHDU: Convergence failed at  94  side 1    Res =  0.6840E+02
 Side 1  free  transition at x/c =  0.0551   43
 Side 2  free  transition at x/c =  0.5845   46

   2   rms: 0.1923E+01   max: 0.6628E+01   D at   70  2   RLX: 0.226
       a = 11.000      CL =  3.5659
      Cm = -0.8394     CD =  0.00721   =>   CDf =  0.00211    CDp =  0.00510

 MRCHDU: Convergence failed at  58  side 1    Res =  0.1488E+00
 MRCHDU: Convergence failed at  60  side 1    Res =  0.1406E+00
 MRCHDU: Convergence failed at  70  side 2    Res =  0.4434E+02
 MRCHDU: Convergence failed at  71  side 2    Res =  0.5402E+02
 MRCHDU: Convergence failed at  72  side 2    Res =  0.9642E+01
 MRCHDU: Convergence failed at  73  side 2    Res =  0.4941E+01
 MRCHDU: Convergence failed at  74  side 2    Res =  0.5883E+02
 MRCHDU: Convergence failed at  75  side 2    Res =  0.1143E+02
 MRCHDU: Convergence failed at  76  side 2    Res =  0.8371E+01
 MRCHDU: Convergence failed at  77  side 2    Res =  0.5801E+01
 MRCHDU: Convergence failed at  78  side 2    Res =  0.5166E+01
 MRCHDU: Convergence failed at  79  side 2    Res =  0.4829E+01
 MRCHDU: Convergence failed at  80  side 2    Res =  0.3422E+01
 MRCHDU: Convergence failed at  81  side 2    Res =  0.8006E+01
 MRCHDU: Convergence failed at  82  side 2    Res =  0.9663E+01
 MRCHDU: Convergence failed at  83  side 2    Res =  0.1876E+02
 MRCHDU: Convergence failed at  84  side 2    Res =  0.4429E+02
 MRCHDU: Convergence failed at  85  side 2    Res =  0.7159E+02
 MRCHDU: Convergence failed at  86  side 2    Res =  0.4585E+01
 MRCHDU: Convergence failed at  87  side 2    Res =  0.3488E+01
 MRCHDU: Convergence failed at  88  side 2    Res =  0.2636E+01
 MRCHDU: Convergence failed at  89  side 2    Res =  0.1723E+01
 MRCHDU: Convergence failed at  90  side 2    Res =  0.1320E+01
 Side 1  free  transition at x/c =  0.0503   42
 Side 2  free  transition at x/c =  0.5960   46

   3   rms: 0.5610E+00   max: -.8897E+00   U at   94  1   RLX: 0.255
       a = 11.000      CL =  2.5135
      Cm = -0.4866     CD =  0.04661   =>   CDf =  0.00380    CDp =  0.04282

 MRCHDU: Convergence failed at  90  side 2    Res =  0.1240E+02
 Side 1  free  transition at x/c =  0.0519   42
 Side 2  free  transition at x/c =  0.6088   47

   4   rms: 0.4941E+00   max: -.7387E+00   D at   83  2   RLX: 0.325
       a = 11.000      CL =  2.1175
      Cm = -0.3483     CD =  0.06263   =>   CDf =  0.00395    CDp =  0.05867

 MRCHDU: Convergence failed at  44  side 1    Res =  0.5687E+01
 MRCHDU: Convergence failed at  45  side 1    Res =  0.9141E+01
 MRCHDU: Convergence failed at  46  side 1    Res =  0.4777E+01
 MRCHDU: Convergence failed at  62  side 1    Res =  0.1204E+00
 MRCHDU: Convergence failed at  63  side 1    Res =  0.4407E+00
 MRCHDU: Convergence failed at  66  side 1    Res =  0.7074E+00
 Side 1  free  transition at x/c =  0.0578   43
 Side 2  free  transition at x/c =  0.6207   47

   5   rms: 0.5978E+00   max: -.3530E+01   D at   53  1   RLX: 0.142
       a = 11.000      CL =  1.8908
      Cm = -0.2410     CD =  0.04764   =>   CDf =  0.00541    CDp =  0.04223

 MRCHDU: Convergence failed at  64  side 1    Res =  0.1784E-01
 Side 1  free  transition at x/c =  0.0578   43
 Side 2  free  transition at x/c =  0.6315   48

   6   rms: 0.3749E+00   max: -.1054E+01   C at   48  2   RLX: 0.447
       a = 11.000      CL =  1.7792
      Cm = -0.1795     CD =  0.03844   =>   CDf =  0.00738    CDp =  0.03106

 Side 1  free  transition at x/c =  0.0533   43
 Side 2  free  transition at x/c =  0.6590   49

   7   rms: 0.5598E+00   max: -.2411E+01   D at   75  1   RLX: 0.207
       a = 11.000      CL =  1.7018
      Cm = -0.1450     CD =  0.03222   =>   CDf =  0.00678    CDp =  0.02545

 Side 1  free  transition at x/c =  0.0535   43
 Side 2  free  transition at x/c =  0.6616   49

   8   rms: 0.8752E+00   max: -.4650E+01   D at   92  1   RLX: 0.108
       a = 11.000      CL =  1.7096
      Cm = -0.1419     CD =  0.03059   =>   CDf =  0.00695    CDp =  0.02365

 MRCHDU: Convergence failed at  92  side 1    Res =  0.8309E-01
 Side 1  free  transition at x/c =  0.0535   43
 Side 2  free  transition at x/c =  0.6640   49

   9   rms: 0.3785E+00   max: -.1751E+01   D at   81  2   RLX: 0.285
       a = 11.000      CL =  1.7568
      Cm = -0.1527     CD =  0.02732   =>   CDf =  0.00708    CDp =  0.02023

 Side 1  free  transition at x/c =  0.0527   43
 Side 2  free  transition at x/c =  0.6953   50

  10   rms: 0.2157E+00   max: -.1150E+01   D at   81  2   RLX: 0.435
       a = 11.000      CL =  1.7644
      Cm = -0.1545     CD =  0.02636   =>   CDf =  0.00826    CDp =  0.01810

 Side 1  free  transition at x/c =  0.0504   43
 Side 2  free  transition at x/c =  0.7102   50

  11   rms: 0.1337E+00   max: 0.9876E+00   D at   94  1   RLX: 0.705
       a = 11.000      CL =  1.6859
      Cm = -0.1413     CD =  0.02931   =>   CDf =  0.00793    CDp =  0.02138

 Side 1  free  transition at x/c =  0.0505   43
 Side 2  free  transition at x/c =  0.6944   49

  12   rms: 0.7999E-01   max: -.3892E+00   D at   64  1
       a = 11.000      CL =  1.5875
      Cm = -0.1232     CD =  0.03116   =>   CDf =  0.00807    CDp =  0.02309

 Side 1  free  transition at x/c =  0.0519   42
 Side 2  free  transition at x/c =  0.6469   48

  13   rms: 0.1622E-01   max: -.2341E+00   D at   49  2
       a = 11.000      CL =  1.5859
      Cm = -0.1231     CD =  0.03114   =>   CDf =  0.00760    CDp =  0.02354

 Side 1  free  transition at x/c =  0.0521   42
 Side 2  free  transition at x/c =  0.6516   49

  14   rms: 0.3803E-02   max: -.5766E-01   C at   49  2
       a = 11.000      CL =  1.5858
      Cm = -0.1231     CD =  0.03115   =>   CDf =  0.00758    CDp =  0.02357

 Side 1  free  transition at x/c =  0.0521   42
 Side 2  free  transition at x/c =  0.6513   49

  15   rms: 0.3106E-03   max: 0.4926E-02   C at   49  2
       a = 11.000      CL =  1.5858
      Cm = -0.1231     CD =  0.03115   =>   CDf =  0.00757    CDp =  0.02358

 Side 1  free  transition at x/c =  0.0521   42
 Side 2  free  transition at x/c =  0.6512   49

  16   rms: 0.1806E-05   max: 0.2157E-04   C at   49  2
       a = 11.000      CL =  1.5858
      Cm = -0.1231     CD =  0.03115   =>   CDf =  0.00757    CDp =  0.02358

 Point added to stored polar  1
 Point written to save file  000141M0.04.log                                 
 Dump file unspecified or not available
 Calculating wake trajectory ...
 Calculating source influence matrix ...

 Solving BL system ...

 Side 1  free  transition at x/c =  0.0521   42
 Side 2  free  transition at x/c =  0.6512   49

   1   rms: 0.1971E+00   max: -.2092E+01   C at   49  2   RLX: 0.239
       a = 12.000      CL =  1.6053
      Cm = -0.1214     CD =  0.03198   =>   CDf =  0.00719    CDp =  0.02479

 Side 1  free  transition at x/c =  0.0505   43
 Side 2  free  transition at x/c =  0.6795   49

   2   rms: 0.1283E+00   max: -.1070E+01   C at   49  2   RLX: 0.467
       a = 12.000      CL =  1.6330
      Cm = -0.1191     CD =  0.03353   =>   CDf =  0.00746    CDp =  0.02608

 Side 1  free  transition at x/c =  0.0486   43
 Side 2  free  transition at x/c =  0.7255   51

   3   rms: 0.9314E-01   max: -.1351E+01   C at   51  2   RLX: 0.370
       a = 12.000      CL =  1.6412
      Cm = -0.1178     CD =  0.03459   =>   CDf =  0.00738    CDp =  0.02721

 Side 1  free  transition at x/c =  0.0482   43
 Side 2  free  transition at x/c =  0.7440   52

   4   rms: 0.6407E-01   max: -.8794E+00   C at   52  2   RLX: 0.569
       a = 12.000      CL =  1.6478
      Cm = -0.1162     CD =  0.03550   =>   CDf =  0.00737    CDp =  0.02813

 Side 1  free  transition at x/c =  0.0477   42
 Side 2  free  transition at x/c =  0.7740   53

   5   rms: 0.3753E-01   max: -.5835E+00   C at   53  2   RLX: 0.857
       a = 12.000      CL =  1.6532
      Cm = -0.1148     CD =  0.03543   =>   CDf =  0.00725    CDp =  0.02818

 Side 1  free  transition at x/c =  0.0472   42
 Side 2  free  transition at x/c =  0.8179   56

   6   rms: 0.3341E-01   max: -.5929E+00   C at   56  2   RLX: 0.843
       a = 12.000      CL =  1.6511
      Cm = -0.1140     CD =  0.03534   =>   CDf =  0.00706    CDp =  0.02828

 Side 1  free  transition at x/c =  0.0472   42
 Side 2  free  transition at x/c =  0.8333   57

   7   rms: 0.1910E-01   max: -.3393E+00   C at   57  2
       a = 12.000      CL =  1.6498
      Cm = -0.1137     CD =  0.03531   =>   CDf =  0.00701    CDp =  0.02830

 Side 1  free  transition at x/c =  0.0472   42
 Side 2  free  transition at x/c =  0.8452   57

   8   rms: 0.1003E-02   max: -.1634E-01   C at   57  2
       a = 12.000      CL =  1.6498
      Cm = -0.1137     CD =  0.03531   =>   CDf =  0.00698    CDp =  0.02833

 Side 1  free  transition at x/c =  0.0472   42
 Side 2  free  transition at x/c =  0.8458   57

   9   rms: 0.6697E-05   max: 0.1093E-03   C at   57  2
       a = 12.000      CL =  1.6498
      Cm = -0.1137     CD =  0.03531   =>   CDf =  0.00698    CDp =  0.02833

 Point added to stored polar  1
 Point written to save file  000141M0.04.log                                 
 Dump file unspecified or not available
 Calculating wake trajectory ...
 Calculating source influence matrix ...

 Solving BL system ...

 Side 1  free  transition at x/c =  0.0472   42
 Side 2  free  transition at x/c =  0.8458   57

   1   rms: 0.4069E+00   max: -.6747E+01   C at   57  2   RLX: 0.074
       a = 13.000      CL =  1.6514
      Cm = -0.1125     CD =  0.03556   =>   CDf =  0.00701    CDp =  0.02855

 Side 1  free  transition at x/c =  0.0469   42
 Side 2  free  transition at x/c =  0.8704   59

   2   rms: 0.7313E+00   max: -.1223E+02   C at   59  2   RLX: 0.041
       a = 13.000      CL =  1.6511
      Cm = -0.1118     CD =  0.03563   =>   CDf =  0.00694    CDp =  0.02869

 Side 1  free  transition at x/c =  0.0468   42
 Side 2  free  transition at x/c =  0.8859   60

   3   rms: 0.1164E+01   max: -.1890E+02   C at   60  2   RLX: 0.026
       a = 13.000      CL =  1.6499
      Cm = -0.1111     CD =  0.03565   =>   CDf =  0.00690    CDp =  0.02875

 Side 1  free  transition at x/c =  0.0468   42
 Side 2  free  transition at x/c =  0.9004   61

   4   rms: 0.2295E+01   max: -.3542E+02   C at   61  2   RLX: 0.014
       a = 13.000      CL =  1.6483
      Cm = -0.1106     CD =  0.03563   =>   CDf =  0.00688    CDp =  0.02876

 Side 1  free  transition at x/c =  0.0468   42
 Side 2  free  transition at x/c =  0.9175   62

   5   rms: 0.9290E+01   max: -.1301E+03   C at   62  2   RLX: 0.004
       a = 13.000      CL =  1.6473
      Cm = -0.1104     CD =  0.03560   =>   CDf =  0.00686    CDp =  0.02875

 Side 1  free  transition at x/c =  0.0468   42
 Side 2  free  transition at x/c =  0.9300   63

   6   rms: 0.1120E+02   max: -.1556E+03   C at   63  2   RLX: 0.003
       a = 13.000      CL =  1.6471
      Cm = -0.1103     CD =  0.03562   =>   CDf =  0.00685    CDp =  0.02877

 Side 1  free  transition at x/c =  0.0468   42
 Side 2  free  transition at x/c =  0.9430   63

   7   rms: 0.1432E+02   max: -.1900E+03   C at   63  2   RLX: 0.003
       a = 13.000      CL =  1.6468
      Cm = -0.1103     CD =  0.03562   =>   CDf =  0.00685    CDp =  0.02877

 Side 1  free  transition at x/c =  0.0468   42
 Side 2  free  transition at x/c =  0.9540   64

   8   rms: 0.1655E+02   max: -.2363E+03   C at   64  2   RLX: 0.002
       a = 13.000      CL =  1.6466
      Cm = -0.1102     CD =  0.03563   =>   CDf =  0.00685    CDp =  0.02878

 Side 1  free  transition at x/c =  0.0468   42
 Side 2  free  transition at x/c =  0.9649   65

   9   rms: 0.1984E+02   max: -.3185E+03   C at   65  2   RLX: 0.002
       a = 13.000      CL =  1.6465
      Cm = -0.1101     CD =  0.03563   =>   CDf =  0.00685    CDp =  0.02878

 Side 1  free  transition at x/c =  0.0468   42
 Side 2  free  transition at x/c =  0.9746   66

  10   rms: 0.1902E+02   max: -.3677E+03   C at   66  2   RLX: 0.001
       a = 13.000      CL =  1.6464
      Cm = -0.1101     CD =  0.03563   =>   CDf =  0.00684    CDp =  0.02878

 Side 1  free  transition at x/c =  0.0468   42
 Side 2  free  transition at x/c =  0.9850   66

  11   rms: 0.2323E+02   max: -.4482E+03   C at   66  2   RLX: 0.001
       a = 13.000      CL =  1.6463
      Cm = -0.1101     CD =  0.03563   =>   CDf =  0.00684    CDp =  0.02878

 Side 1  free  transition at x/c =  0.0468   42
 Side 2  free  transition at x/c =  0.9936   67

  12   rms: 0.1182E+03   max: 0.3205E+04   C at   67  2   RLX: 0.000
       a = 13.000      CL =  1.6471
      Cm = -0.1102     CD =  0.03565   =>   CDf =  0.00685    CDp =  0.02880

 Side 1  free  transition at x/c =  0.0468   42
 Side 2  free  transition at x/c =  0.9885   67

  13   rms: 0.1211E+02   max: 0.3261E+03   C at   67  2   RLX: 0.005
       a = 13.000      CL =  1.6513
      Cm = -0.1109     CD =  0.03581   =>   CDf =  0.00684    CDp =  0.02896

 Side 1  free  transition at x/c =  0.0466   42
 Side 2  free  transition at x/c =  0.9746   66

  14   rms: 0.1806E+02   max: -.3493E+03   C at   66  2   RLX: 0.001
       a = 13.000      CL =  1.6512
      Cm = -0.1109     CD =  0.03578   =>   CDf =  0.00683    CDp =  0.02895

 Side 1  free  transition at x/c =  0.0466   42
 Side 2  free  transition at x/c =  0.9855   66

  15   rms: 0.2208E+02   max: -.4261E+03   C at   66  2   RLX: 0.001
       a = 13.000      CL =  1.6510
      Cm = -0.1108     CD =  0.03578   =>   CDf =  0.00683    CDp =  0.02895

 Side 1  free  transition at x/c =  0.0466   42
 Side 2  free  transition at x/c =  0.9945   67

  16   rms: 0.4746E+03   max: 0.1287E+05   C at   67  2   RLX: 0.000
       a = 13.000      CL =  1.6515
      Cm = -0.1109     CD =  0.03579   =>   CDf =  0.00684    CDp =  0.02894

 Side 1  free  transition at x/c =  0.0466   42
 Side 2  free  transition at x/c =  0.9904   67

  17   rms: 0.1739E+02   max: 0.4698E+03   C at   67  2   RLX: 0.003
       a = 13.000      CL =  1.6544
      Cm = -0.1114     CD =  0.03590   =>   CDf =  0.00684    CDp =  0.02906

 Side 1  free  transition at x/c =  0.0465   42
 Side 2  free  transition at x/c =  0.9804   66

  18   rms: 0.1968E+02   max: -.3802E+03   C at   66  2   RLX: 0.001
       a = 13.000      CL =  1.6542
      Cm = -0.1114     CD =  0.03588   =>   CDf =  0.00683    CDp =  0.02906

 Side 1  free  transition at x/c =  0.0465   42
 Side 2  free  transition at x/c =  0.9909   67

  19   rms: 0.1824E+02   max: 0.4933E+03   C at   67  2   RLX: 0.003
       a = 13.000      CL =  1.6568
      Cm = -0.1118     CD =  0.03597   =>   CDf =  0.00683    CDp =  0.02914

 Side 1  free  transition at x/c =  0.0465   42
 Side 2  free  transition at x/c =  0.9817   66

  20   rms: 0.1936E+02   max: -.3741E+03   C at   66  2   RLX: 0.001
       a = 13.000      CL =  1.6567
      Cm = -0.1117     CD =  0.03597   =>   CDf =  0.00682    CDp =  0.02914

 Side 1  free  transition at x/c =  0.0465   42
 Side 2  free  transition at x/c =  0.9924   67

  21   rms: 0.2950E+02   max: 0.7991E+03   C at   67  2   RLX: 0.002
       a = 13.000      CL =  1.6584
      Cm = -0.1120     CD =  0.03602   =>   CDf =  0.00641    CDp =  0.02961

 Side 1  free  transition at x/c =  0.0464   43
 Side 2  free  transition at x/c =  0.9855   65

  22   rms: 0.1992E+02   max: -.3845E+03   C at   65  2   RLX: 0.001
       a = 13.000      CL =  1.6583
      Cm = -0.1120     CD =  0.03602   =>   CDf =  0.00682    CDp =  0.02920

 Side 1  free  transition at x/c =  0.0464   43
 Side 2  free  transition at x/c =  0.9954   66

  23   rms: 0.1740E+03   max: -.4720E+04   C at   66  2   RLX: 0.000
       a = 13.000      CL =  1.6582
      Cm = -0.1120     CD =  0.03601   =>   CDf =  0.00683    CDp =  0.02918

 Side 1  free  transition at x/c =  0.0464   43
 Side 2  free  transition at x/c =  0.9963   66

  24   rms: 0.6171E+02   max: -.1674E+04   C at   66  2   RLX: 0.000
       a = 13.000      CL =  1.6583
      Cm = -0.1120     CD =  0.03601   =>   CDf =  0.00683    CDp =  0.02918

 Side 1  free  transition at x/c =  0.0464   43
 Side 2  free  transition at x/c =  0.9971   66

  25   rms: 0.4071E+02   max: -.1104E+04   C at   66  2   RLX: 0.000
       a = 13.000      CL =  1.6585
      Cm = -0.1120     CD =  0.03602   =>   CDf =  0.00683    CDp =  0.02919
 VISCAL:  Convergence failed
 Calculating wake trajectory ...
 Calculating source influence matrix ...

 Solving BL system ...

 Side 1  free  transition at x/c =  0.0464   43
 Side 2  free  transition at x/c =  0.9978   66

   1   rms: 0.6561E+02   max: -.1779E+04   C at   66  2   RLX: 0.000
       a = 14.000      CL =  1.6578
      Cm = -0.1121     CD =  0.03603   =>   CDf =  0.00685    CDp =  0.02918

 Side 1  free  transition at x/c =  0.0464   43
 Side 2  free  transition at x/c =  0.9984   66

   2   rms: 0.5045E+02   max: -.1368E+04   C at   66  2   RLX: 0.000
       a = 14.000      CL =  1.6582
      Cm = -0.1121     CD =  0.03604   =>   CDf =  0.00685    CDp =  0.02919

 Side 1  free  transition at x/c =  0.0464   43
 Side 2  free  transition at x/c =  0.9989   66

   3   rms: 0.3832E+02   max: -.1038E+04   C at   66  2   RLX: 0.000
       a = 14.000      CL =  1.6588
      Cm = -0.1122     CD =  0.03606   =>   CDf =  0.00685    CDp =  0.02922

 Side 1  free  transition at x/c =  0.0464   43
 Side 2  free  transition at x/c =  0.9995   66

   4   rms: 0.2689E+02   max: -.7275E+03   C at   66  2   RLX: 0.001
       a = 14.000      CL =  1.6595
      Cm = -0.1123     CD =  0.03609   =>   CDf =  0.00684    CDp =  0.02925

 Side 1  free  transition at x/c =  0.0464   43
 Side 2 forced transition at x/c =  1.0001   66

   5   rms: 0.2705E+00   max: -.1672E+01   n at   65  2   RLX: 0.299
       a = 14.000      CL =  1.6851
      Cm = -0.1062     CD =  0.03885   =>   CDf =  0.00684    CDp =  0.03202

 Side 1  free  transition at x/c =  0.0440   43
 Side 2 forced transition at x/c =  1.0001   66

   6   rms: 0.1499E+00   max: 0.5667E+00   T at   43  1
       a = 14.000      CL =  1.7171
      Cm = -0.0899     CD =  0.04653   =>   CDf =  0.00642    CDp =  0.04011

 MRCHDU: Convergence failed at  44  side 1    Res =  0.5434E+01
 MRCHDU: Convergence failed at  45  side 1    Res =  0.8576E+01
 MRCHDU: Convergence failed at  46  side 1    Res =  0.7285E+01
 MRCHDU: Convergence failed at  47  side 1    Res =  0.1574E+02
 MRCHDU: Convergence failed at  48  side 1    Res =  0.9836E+02
 MRCHDU: Convergence failed at  49  side 1    Res =  0.3454E+02
 MRCHDU: Convergence failed at  50  side 1    Res =  0.1740E+02
 MRCHDU: Convergence failed at  51  side 1    Res =  0.1302E+02
 MRCHDU: Convergence failed at  52  side 1    Res =  0.1147E+02
 MRCHDU: Convergence failed at  53  side 1    Res =  0.1089E+02
 MRCHDU: Convergence failed at  54  side 1    Res =  0.1061E+02
 MRCHDU: Convergence failed at  55  side 1    Res =  0.1109E+03
 MRCHDU: Convergence failed at  56  side 1    Res =  0.2177E+02
 MRCHDU: Convergence failed at  57  side 1    Res =  0.4550E+02
 MRCHDU: Convergence failed at  58  side 1    Res =  0.4863E+02
 MRCHDU: Convergence failed at  59  side 1    Res =  0.2711E+02
 MRCHDU: Convergence failed at  60  side 1    Res =  0.2232E+02
 MRCHDU: Convergence failed at  61  side 1    Res =  0.5009E+02
 MRCHDU: Convergence failed at  62  side 1    Res =  0.2602E+02
 MRCHDU: Convergence failed at  63  side 1    Res =  0.2710E+02
 MRCHDU: Convergence failed at  64  side 1    Res =  0.7354E+02
 MRCHDU: Convergence failed at  65  side 1    Res =  0.8515E+02
 MRCHDU: Convergence failed at  66  side 1    Res =  0.7510E+02
 MRCHDU: Convergence failed at  67  side 1    Res =  0.7668E+02
 MRCHDU: Convergence failed at  68  side 1    Res =  0.1742E+04
 MRCHDU: Convergence failed at  69  side 1    Res =  0.1767E+03
 MRCHDU: Convergence failed at  70  side 1    Res =  0.1380E+03
 MRCHDU: Convergence failed at  71  side 1    Res =  0.2554E+04
 MRCHDU: Convergence failed at  72  side 1    Res =  0.1123E+03
 MRCHDU: Convergence failed at  73  side 1    Res =  0.6576E+02
 MRCHDU: Convergence failed at  74  side 1    Res =  0.1027E+03
 MRCHDU: Convergence failed at  75  side 1    Res =  0.7452E+02
 MRCHDU: Convergence failed at  76  side 1    Res =  0.6024E+02
 MRCHDU: Convergence failed at  77  side 1    Res =  0.5165E+02
 MRCHDU: Convergence failed at  78  side 1    Res =  0.4111E+02
 MRCHDU: Convergence failed at  79  side 1    Res =  0.2494E+02
 MRCHDU: Convergence failed at  80  side 1    Res =  0.8633E+02
 MRCHDU: Convergence failed at  81  side 1    Res =  0.7384E+02
 MRCHDU: Convergence failed at  82  side 1    Res =  0.6452E+02
 MRCHDU: Convergence failed at  83  side 1    Res =  0.5730E+02
 MRCHDU: Convergence failed at  84  side 1    Res =  0.7691E+04
 MRCHDU: Convergence failed at  85  side 1    Res =  0.3566E+02
 MRCHDU: Convergence failed at  86  side 1    Res =  0.7423E+02
 MRCHDU: Convergence failed at  87  side 1    Res =  0.7232E+03
 MRCHDU: Convergence failed at  88  side 1    Res =  0.5929E+03
 MRCHDU: Convergence failed at  89  side 1    Res =  0.2410E+03
 MRCHDU: Convergence failed at  90  side 1    Res =  0.1644E+03
 MRCHDU: Convergence failed at  91  side 1    Res =  0.1378E+03
 MRCHDU: Convergence failed at  92  side 1    Res =  0.1168E+03
 MRCHDU: Convergence failed at  93  side 1    Res =  0.1059E+03
 MRCHDU: Convergence failed at  94  side 1    Res =  0.1002E+03
 MRCHDU: Convergence failed at  95  side 1    Res =  0.9923E+02
 MRCHDU: Convergence failed at  96  side 1    Res =  0.1028E+03
 MRCHDU: Convergence failed at  97  side 1    Res =  0.8877E+02
 MRCHDU: Convergence failed at  70  side 2    Res =  0.5593E+01
 MRCHDU: Convergence failed at  71  side 2    Res =  0.3228E+01
 MRCHDU: Convergence failed at  72  side 2    Res =  0.3419E+01
 MRCHDU: Convergence failed at  73  side 2    Res =  0.6117E+01
 MRCHDU: Convergence failed at  74  side 2    Res =  0.4479E+01
 MRCHDU: Convergence failed at  75  side 2    Res =  0.2896E+01
 MRCHDU: Convergence failed at  76  side 2    Res =  0.1496E+02
 MRCHDU: Convergence failed at  77  side 2    Res =  0.3719E+01
 Side 1  free  transition at x/c =  0.0416   43
 Side 2 forced transition at x/c =  1.0001   65

   7   rms: 0.3215E+01   max: 0.1293E+02   D at   68  2   RLX: 0.116
       a = 14.000      CL =  5.2775
      Cm = -1.3010     CD =  0.00583   =>   CDf =  0.00139    CDp =  0.00444

 MRCHDU: Convergence failed at  53  side 1    Res =  0.3924E+00
 MRCHDU: Convergence failed at  54  side 1    Res =  0.3630E+00
 MRCHDU: Convergence failed at  55  side 1    Res =  0.3276E+00
 MRCHDU: Convergence failed at  56  side 1    Res =  0.2754E+00
 MRCHDU: Convergence failed at  91  side 1    Res =  0.1319E+00
 MRCHDU: Convergence failed at  92  side 1    Res =  0.1590E+00
 MRCHDU: Convergence failed at  93  side 1    Res =  0.1890E+00
 MRCHDU: Convergence failed at  94  side 1    Res =  0.2220E+00
 MRCHDU: Convergence failed at  95  side 1    Res =  0.2579E+00
 MRCHDU: Convergence failed at  96  side 1    Res =  0.3009E+00
 MRCHDU: Convergence failed at  97  side 1    Res =  0.3430E+00
 MRCHDU: Convergence failed at  68  side 2    Res =  0.1080E+02
 MRCHDU: Convergence failed at  69  side 2    Res =  0.1014E+02
 MRCHDU: Convergence failed at  70  side 2    Res =  0.3358E+01
 Side 1  free  transition at x/c =  0.0387   42
 Side 2 forced transition at x/c =  1.0001   65

   8   rms: 0.9319E+00   max: -.2187E+01   C at   65  2   RLX: 0.136
       a = 14.000      CL =  3.6048
      Cm = -0.7449     CD =  0.08280   =>   CDf =  0.00265    CDp =  0.08015

 Side 1  free  transition at x/c =  0.0370   42
 Side 2 forced transition at x/c =  1.0001   65

   9   rms: 0.8002E+00   max: -.1812E+01   C at   65  2   RLX: 0.221
       a = 14.000      CL =  3.0489
      Cm = -0.6038     CD =  0.10429   =>   CDf =  0.00294    CDp =  0.10135

 Side 1  free  transition at x/c =  0.0384   41
 Side 2 forced transition at x/c =  1.0001   66

  10   rms: 0.2119E+01   max: 0.1750E+02   T at   41  1   RLX: 0.061
       a = 14.000      CL =  2.9621
      Cm = -0.5547     CD =  0.11166   =>   CDf =  0.00262    CDp =  0.10904

 Side 1  free  transition at x/c =  0.0349   41
 Side 2 forced transition at x/c =  1.0001   66

  11   rms: 0.7471E+00   max: -.1523E+01   C at   66  2   RLX: 0.282
       a = 14.000      CL =  2.4326
      Cm = -0.4460     CD =  0.12656   =>   CDf =  0.00260    CDp =  0.12396

 Side 1  free  transition at x/c =  0.0359   40
 Side 2 forced transition at x/c =  1.0001   67

  12   rms: 0.8808E+00   max: 0.1228E+01   D at   77  2   RLX: 0.332
       a = 14.000      CL =  1.9216
      Cm = -0.3642     CD =  0.16435   =>   CDf =  0.00255    CDp =  0.16181

 Side 1  free  transition at x/c =  0.0386   38
 Side 2 forced transition at x/c =  1.0001   69

  13   rms: 0.4172E+00   max: 0.1788E+01   T at   39  1   RLX: 0.368
       a = 14.000      CL =  1.5912
      Cm = -0.2802     CD =  0.15219   =>   CDf =  0.00200    CDp =  0.15019

 Side 1  free  transition at x/c =  0.0422   39
 Side 2  free  transition at x/c =  0.8851   62

  14   rms: 0.2914E+01   max: -.4533E+02   C at   62  2   RLX: 0.011
       a = 14.000      CL =  1.4132
      Cm = -0.2147     CD =  0.13871   =>   CDf =  0.00312    CDp =  0.13559

 Side 1  free  transition at x/c =  0.0423   39
 Side 2  free  transition at x/c =  0.9196   64

  15   rms: 0.2144E+02   max: -.2947E+03   C at   64  2   RLX: 0.002
       a = 14.000      CL =  1.4121
      Cm = -0.2142     CD =  0.13876   =>   CDf =  0.00311    CDp =  0.13566

 Side 1  free  transition at x/c =  0.0423   39
 Side 2  free  transition at x/c =  0.9304   65

  16   rms: 0.2047E+02   max: -.2853E+03   C at   65  2   RLX: 0.002
       a = 14.000      CL =  1.4119
      Cm = -0.2140     CD =  0.13867   =>   CDf =  0.00311    CDp =  0.13556

 Side 1  free  transition at x/c =  0.0424   39
 Side 2  free  transition at x/c =  0.9409   65

  17   rms: 0.2560E+02   max: -.3428E+03   C at   65  2   RLX: 0.001
       a = 14.000      CL =  1.4116
      Cm = -0.2138     CD =  0.13859   =>   CDf =  0.00311    CDp =  0.13548

 Side 1  free  transition at x/c =  0.0424   39
 Side 2  free  transition at x/c =  0.9499   66

  18   rms: 0.2823E+02   max: -.4070E+03   C at   66  2   RLX: 0.001
       a = 14.000      CL =  1.4114
      Cm = -0.2136     CD =  0.13853   =>   CDf =  0.00311    CDp =  0.13542

 Side 1  free  transition at x/c =  0.0424   39
 Side 2  free  transition at x/c =  0.9593   66

  19   rms: 0.3494E+02   max: -.4953E+03   C at   66  2   RLX: 0.001
       a = 14.000      CL =  1.4112
      Cm = -0.2134     CD =  0.13847   =>   CDf =  0.00311    CDp =  0.13536

 Side 1  free  transition at x/c =  0.0424   39
 Side 2  free  transition at x/c =  0.9680   67

  20   rms: 0.3931E+02   max: -.6300E+03   C at   67  2   RLX: 0.001
       a = 14.000      CL =  1.4110
      Cm = -0.2133     CD =  0.13843   =>   CDf =  0.00311    CDp =  0.13532

 Side 1  free  transition at x/c =  0.0424   39
 Side 2  free  transition at x/c =  0.9765   68

  21   rms: 0.3042E+02   max: -.5882E+03   C at   68  2   RLX: 0.001
       a = 14.000      CL =  1.4109
      Cm = -0.2132     CD =  0.13838   =>   CDf =  0.00311    CDp =  0.13527

 Side 1  free  transition at x/c =  0.0424   39
 Side 2  free  transition at x/c =  0.9873   68

  22   rms: 0.3515E+02   max: -.6783E+03   C at   68  2   RLX: 0.001
       a = 14.000      CL =  1.4107
      Cm = -0.2131     CD =  0.13834   =>   CDf =  0.00312    CDp =  0.13523

 Side 1  free  transition at x/c =  0.0424   39
 Side 2  free  transition at x/c =  0.9960   69

  23   rms: 0.1727E+03   max: -.4686E+04   C at   69  2   RLX: 0.000
       a = 14.000      CL =  1.4107
      Cm = -0.2131     CD =  0.13835   =>   CDf =  0.00314    CDp =  0.13521

 Side 1  free  transition at x/c =  0.0424   39
 Side 2  free  transition at x/c =  0.9967   69

  24   rms: 0.1023E+03   max: -.2774E+04   C at   69  2   RLX: 0.000
       a = 14.000      CL =  1.4108
      Cm = -0.2131     CD =  0.13835   =>   CDf =  0.00314    CDp =  0.13521

 Side 1  free  transition at x/c =  0.0424   39
 Side 2  free  transition at x/c =  0.9972   69

  25   rms: 0.7922E+02   max: -.2149E+04   C at   69  2   RLX: 0.000
       a = 14.000      CL =  1.4110
      Cm = -0.2131     CD =  0.13835   =>   CDf =  0.00314    CDp =  0.13521
 VISCAL:  Convergence failed
 Calculating wake trajectory ...
 Calculating source influence matrix ...

 Solving BL system ...

 Side 1  free  transition at x/c =  0.0424   39
 Side 2  free  transition at x/c =  0.9976   69

   1   rms: 0.1007E+03   max: -.2731E+04   C at   69  2   RLX: 0.000
       a = 15.000      CL =  1.4076
      Cm = -0.2131     CD =  0.13836   =>   CDf =  0.00316    CDp =  0.13521

 Side 1  free  transition at x/c =  0.0424   39
 Side 2  free  transition at x/c =  0.9980   69

   2   rms: 0.8133E+02   max: -.2205E+04   C at   69  2   RLX: 0.000
       a = 15.000      CL =  1.4078
      Cm = -0.2131     CD =  0.13838   =>   CDf =  0.00315    CDp =  0.13523

 Side 1  free  transition at x/c =  0.0424   39
 Side 2  free  transition at x/c =  0.9984   69

   3   rms: 0.6753E+02   max: -.1831E+04   C at   69  2   RLX: 0.000
       a = 15.000      CL =  1.4082
      Cm = -0.2132     CD =  0.13840   =>   CDf =  0.00315    CDp =  0.13525

 Side 1  free  transition at x/c =  0.0424   39
 Side 2  free  transition at x/c =  0.9987   69

   4   rms: 0.5392E+02   max: -.1461E+04   C at   69  2   RLX: 0.000
       a = 15.000      CL =  1.4086
      Cm = -0.2132     CD =  0.13842   =>   CDf =  0.00315    CDp =  0.13528

 Side 1  free  transition at x/c =  0.0424   39
 Side 2  free  transition at x/c =  0.9990   69

   5   rms: 0.4372E+02   max: -.1184E+04   C at   69  2   RLX: 0.000
       a = 15.000      CL =  1.4092
      Cm = -0.2133     CD =  0.13845   =>   CDf =  0.00314    CDp =  0.13531

 Side 1  free  transition at x/c =  0.0424   39
 Side 2  free  transition at x/c =  0.9993   69

   6   rms: 0.3487E+02   max: -.9431E+03   C at   69  2   RLX: 0.001
       a = 15.000      CL =  1.4098
      Cm = -0.2133     CD =  0.13849   =>   CDf =  0.00314    CDp =  0.13535

 Side 1  free  transition at x/c =  0.0423   39
 Side 2  free  transition at x/c =  0.9995   69

   7   rms: 0.2779E+02   max: -.7504E+03   C at   69  2   RLX: 0.001
       a = 15.000      CL =  1.4106
      Cm = -0.2134     CD =  0.13853   =>   CDf =  0.00314    CDp =  0.13539

 Side 1  free  transition at x/c =  0.0423   39
 Side 2  free  transition at x/c =  0.9997   69

   8   rms: 0.2162E+02   max: -.5822E+03   C at   69  2   RLX: 0.001
       a = 15.000      CL =  1.4117
      Cm = -0.2136     CD =  0.13859   =>   CDf =  0.00313    CDp =  0.13545

 Side 1  free  transition at x/c =  0.0423   39
 Side 2  free  transition at x/c =  0.9998   69

   9   rms: 0.1782E+02   max: -.4784E+03   C at   69  2   RLX: 0.001
       a = 15.000      CL =  1.4129
      Cm = -0.2137     CD =  0.13865   =>   CDf =  0.00313    CDp =  0.13552

 Side 1  free  transition at x/c =  0.0423   39
 Side 2  free  transition at x/c =  1.0000   69

  10   rms: 0.1350E+02   max: -.3598E+03   C at   69  2   RLX: 0.001
       a = 15.000      CL =  1.4146
      Cm = -0.2139     CD =  0.13873   =>   CDf =  0.00313    CDp =  0.13560

 Side 1  free  transition at x/c =  0.0423   39
 Side 2 forced transition at x/c =  1.0001   69

  11   rms: 0.5653E+00   max: -.2133E+01   n at   68  2   RLX: 0.234
       a = 15.000      CL =  1.4339
      Cm = -0.1880     CD =  0.12391   =>   CDf =  0.00287    CDp =  0.12103

 Side 1  free  transition at x/c =  0.0429   40
 Side 2 forced transition at x/c =  1.0001   68

  12   rms: 0.7247E+00   max: -.3187E+01   D at   54  1   RLX: 0.157
       a = 15.000      CL =  1.4388
      Cm = -0.1673     CD =  0.11702   =>   CDf =  0.00323    CDp =  0.11379

 Side 1  free  transition at x/c =  0.0445   42
 Side 2 forced transition at x/c =  1.0001   67

  13   rms: 0.5068E+00   max: -.2315E+01   D at   50  1   RLX: 0.216
       a = 15.000      CL =  1.4890
      Cm = -0.1601     CD =  0.10842   =>   CDf =  0.00380    CDp =  0.10461

 Side 1  free  transition at x/c =  0.0454   42
 Side 2 forced transition at x/c =  1.0001   67

  14   rms: 0.4086E+00   max: -.1716E+01   D at   50  1   RLX: 0.291
       a = 15.000      CL =  1.5407
      Cm = -0.1416     CD =  0.09821   =>   CDf =  0.00381    CDp =  0.09439

 Side 1  free  transition at x/c =  0.0447   43
 Side 2 forced transition at x/c =  1.0001   66

  15   rms: 0.3917E+00   max: -.1121E+01   D at   54  1   RLX: 0.446
       a = 15.000      CL =  1.6390
      Cm = -0.1177     CD =  0.07810   =>   CDf =  0.00412    CDp =  0.07398

 Side 1  free  transition at x/c =  0.0426   43
 Side 2 forced transition at x/c =  1.0001   65

  16   rms: 0.1945E+00   max: -.7357E+00   D at   70  1   RLX: 0.680
       a = 15.000      CL =  1.6796
      Cm = -0.0920     CD =  0.06260   =>   CDf =  0.00521    CDp =  0.05739

 Side 1  free  transition at x/c =  0.0394   43
 Side 2 forced transition at x/c =  1.0001   65

  17   rms: 0.1096E+00   max: -.4784E+00   D at   78  1
       a = 15.000      CL =  1.7138
      Cm = -0.0793     CD =  0.05334   =>   CDf =  0.00532    CDp =  0.04801

 Side 1  free  transition at x/c =  0.0389   44
 Side 2 forced transition at x/c =  1.0001   64

  18   rms: 0.2617E-01   max: 0.1186E+00   D at   88  1
       a = 15.000      CL =  1.6991
      Cm = -0.0852     CD =  0.05972   =>   CDf =  0.00624    CDp =  0.05348

 Side 1  free  transition at x/c =  0.0389   44
 Side 2 forced transition at x/c =  1.0001   64

  19   rms: 0.3396E-02   max: 0.3597E-01   D at   87  1
       a = 15.000      CL =  1.6975
      Cm = -0.0856     CD =  0.05992   =>   CDf =  0.00615    CDp =  0.05377

 Side 1  free  transition at x/c =  0.0389   44
 Side 2 forced transition at x/c =  1.0001   64

  20   rms: 0.1277E-03   max: 0.2091E-02   D at   86  1
       a = 15.000      CL =  1.6975
      Cm = -0.0856     CD =  0.05990   =>   CDf =  0.00614    CDp =  0.05376

 Side 1  free  transition at x/c =  0.0389   44
 Side 2 forced transition at x/c =  1.0001   64

  21   rms: 0.6478E-05   max: -.8679E-04   C at   64  2
       a = 15.000      CL =  1.6975
      Cm = -0.0856     CD =  0.05990   =>   CDf =  0.00614    CDp =  0.05376

 Point added to stored polar  1
 Point written to save file  000141M0.04.log                                 
 Dump file unspecified or not available

.OPERva   c>  
 XFOIL   c>  
0.1
resp: 
 ===================================================
  XFOIL Version 6.97
  Copyright (C) 2000   Mark Drela, Harold Youngren

  This software comes with ABSOLUTELY NO WARRANTY,
    subject to the GNU General Public License.

  Caveat computor
 ===================================================

 File  xfoil.def  not found

   QUIT    Exit program

  .OPER    Direct operating point(s)
  .MDES    Complex mapping design routine
  .QDES    Surface speed design routine
  .GDES    Geometry design routine

   SAVE f  Write airfoil to labeled coordinate file
   PSAV f  Write airfoil to plain coordinate file
   ISAV f  Write airfoil to ISES coordinate file
   MSAV f  Write airfoil to MSES coordinate file
   REVE    Reverse written-airfoil node ordering
   DELI i  Change written-airfoil file delimiters

   LOAD f  Read buffer airfoil from coordinate file
   NACA i  Set NACA 4,5-digit airfoil and buffer airfoil
   INTE    Set buffer airfoil by interpolating two airfoils
   NORM    Buffer airfoil normalization toggle
   HALF    Halve the number of points in buffer airfoil
   XYCM rr Change CM reference location, currently  0.25000 0.00000

   BEND    Display structural properties of current airfoil

   PCOP    Set current-airfoil panel nodes directly from buffer airfoil points
   PANE    Set current-airfoil panel nodes ( 160 ) based on curvature
  .PPAR    Show/change paneling

  .PLOP    Plotting options

   WDEF f  Write  current-settings file
   RDEF f  Reread current-settings file
   NAME s  Specify new airfoil name
   NINC    Increment name version number

   Z       Zoom    | (available in all menus)
   U       Unzoom  | 

 XFOIL   c>   ...............................................

  G raphics-enable flag:        T
  S ize of plot object          10.00"
  A spect ratio of plot object   0.5500
  P age dimensions              11.00 x  8.50"
  M argins from page edges       0.00",  0.00"
  F ont size (relative)          0.0150
  W indow/screen size fraction   0.8000
  B lowup input method:        Cursor    
  O rientation of plot:        Landscape 
  C olor PostScript output?     F

      Option, Value   (or <Return>)    c>   ...............................................

  G raphics-enable flag:        F
  S ize of plot object          10.00"
  A spect ratio of plot object   0.5500
  P age dimensions              11.00 x  8.50"
  M argins from page edges       0.00",  0.00"
  F ont size (relative)          0.0150
  W indow/screen size fraction   0.8000
  B lowup input method:        Cursor    
  O rientation of plot:        Landscape 
  C olor PostScript output?     F

      Option, Value   (or <Return>)    c>  
 XFOIL   c>  
 Labeled airfoil file.  Name:  000141                                          

 Number of input coordinate points: 200
 Clockwise ordering
 Max thickness =     0.171695  at x =   0.157
 Max camber    =     0.028401  at x =   0.768

  LE  x,y  =  -0.00002  -0.00150  |   Chord =   0.99990
  TE  x,y  =   0.99988   0.00004  |

 Current airfoil nodes set from buffer airfoil nodes ( 200 )

 XFOIL   c>  
 You are working with the buffer airfoil

.GDES   c>  
  i       x        y      angle
   2   0.9990   0.0004    0.064
   3   0.9978   0.0008    0.145
   4   0.9961   0.0014    0.241
   5   0.9938   0.0022    0.274
   6   0.9911   0.0031    0.315
   7   0.9880   0.0042    0.359
   8   0.9843   0.0054    0.435
   9   0.9801   0.0067    0.453
  10   0.9755   0.0081    0.489
  11   0.9704   0.0097    0.546
  12   0.9649   0.0113    0.558
  13   0.9589   0.0130    0.598
  14   0.9524   0.0148    0.622
  15   0.9455   0.0166    0.643
  16   0.9382   0.0184    0.646
  17   0.9304   0.0202    0.670
  18   0.9222   0.0220    0.667
  19   0.9135   0.0239    0.676
  20   0.9045   0.0256    0.656
  21   0.8951   0.0274    0.661
  22   0.8853   0.0291    0.641
  23   0.8751   0.0308    0.622
  24   0.8645   0.0324    0.604
  25   0.8536   0.0339    0.570
  26   0.8423   0.0354    0.546
  27   0.8307   0.0368    0.514
  28   0.8187   0.0382    0.477
  29   0.8065   0.0395    0.441
  30   0.7939   0.0407    0.402
  31   0.7810   0.0418    0.363
  32   0.7679   0.0429    0.318
  33   0.7545   0.0439    0.286
  34   0.7409   0.0449    0.243
  35   0.7270   0.0459    0.203
  36   0.7129   0.0468    0.170
  37   0.6986   0.0477    0.130
  38   0.6841   0.0485    0.100
  39   0.6694   0.0494    0.068
  40   0.6545   0.0502    0.040
  41   0.6395   0.0510    0.018
  42   0.6243   0.0519   -0.005
  43   0.6091   0.0527   -0.022
  44   0.5937   0.0536   -0.033
  45   0.5782   0.0544   -0.043
  46   0.5627   0.0553   -0.049
  47   0.5471   0.0562   -0.049
  48   0.5314   0.0572   -0.048
  49   0.5157   0.0581   -0.037
  50   0.5000   0.0590   -0.029
  51   0.4843   0.0600   -0.014
  52   0.4686   0.0609    0.008
  53   0.4529   0.0619    0.026
  54   0.4373   0.0628    0.056
  55   0.4218   0.0638    0.083
  56   0.4063   0.0647    0.114
  57   0.3909   0.0655    0.149
  58   0.3757   0.0663    0.187
  59   0.3605   0.0671    0.225
  60   0.3455   0.0678    0.266
  61   0.3306   0.0684    0.308
  62   0.3159   0.0689    0.353
  63   0.3014   0.0694    0.396
  64   0.2871   0.0697    0.439
  65   0.2730   0.0699    0.493
  66   0.2591   0.0700    0.531
  67   0.2455   0.0700    0.580
  68   0.2321   0.0698    0.630
  69   0.2190   0.0695    0.675
  70   0.2061   0.0690    0.725
  71   0.1935   0.0684    0.767
  72   0.1813   0.0677    0.823
  73   0.1693   0.0668    0.866
  74   0.1577   0.0657    0.915
  75   0.1464   0.0645    0.969
  76   0.1355   0.0632    1.021
  77   0.1249   0.0616    1.075
  78   0.1147   0.0600    1.142
  79   0.1049   0.0582    1.196
  80   0.0955   0.0563    1.268
  81   0.0865   0.0542    1.355
  82   0.0778   0.0521    1.435
  83   0.0696   0.0498    1.536
  84   0.0618   0.0474    1.658
  85   0.0545   0.0449    1.788
  86   0.0476   0.0423    1.949
  87   0.0411   0.0396    2.140
  88   0.0351   0.0368    2.363
  89   0.0296   0.0340    2.630
  90   0.0245   0.0311    2.952
  91   0.0199   0.0282    3.350
  92   0.0157   0.0252    3.809
  93   0.0120   0.0221    4.346
  94   0.0089   0.0190    5.032
  95   0.0062   0.0159    5.757
  96   0.0039   0.0127    6.560
  97   0.0022   0.0096    7.394
  98   0.0010   0.0064    8.113
  99   0.0002   0.0032    8.627
 100   0.0000   0.0000    6.246
 101   0.0002  -0.0077    3.673
 102   0.0010  -0.0154    3.713
 103   0.0022  -0.0230    3.792
 104   0.0039  -0.0305    3.877
 105   0.0062  -0.0377    3.991
 106   0.0089  -0.0448    4.127
 107   0.0120  -0.0517    4.246
 108   0.0157  -0.0582    4.391
 109   0.0199  -0.0644    4.505
 110   0.0245  -0.0703    4.584
 111   0.0296  -0.0758    4.638
 112   0.0351  -0.0809    4.651
 113   0.0411  -0.0856    4.596
 114   0.0476  -0.0899    4.504
 115   0.0545  -0.0937    4.333
 116   0.0618  -0.0971    4.136
 117   0.0696  -0.0999    3.906
 118   0.0778  -0.1024    3.626
 119   0.0865  -0.1044    3.364
 120   0.0955  -0.1059    3.066
 121   0.1049  -0.1069    2.797
 122   0.1147  -0.1076    2.507
 123   0.1249  -0.1078    2.257
 124   0.1355  -0.1076    2.005
 125   0.1464  -0.1070    1.775
 126   0.1577  -0.1060    1.567
 127   0.1693  -0.1047    1.361
 128   0.1813  -0.1030    1.184
 129   0.1935  -0.1011    1.025
 130   0.2061  -0.0989    0.870
 131   0.2190  -0.0964    0.737
 132   0.2321  -0.0937    0.614
 133   0.2455  -0.0908    0.498
 134   0.2591  -0.0877    0.404
 135   0.2730  -0.0845    0.307
 136   0.2871  -0.0811    0.233
 137   0.3014  -0.0776    0.157
 138   0.3159  -0.0740    0.097
 139   0.3306  -0.0704    0.037
 140   0.3455  -0.0667   -0.013
 141   0.3605  -0.0629   -0.055
 142   0.3757  -0.0592   -0.093
 143   0.3909  -0.0554   -0.132
 144   0.4063  -0.0517   -0.156
 145   0.4218  -0.0480   -0.179
 146   0.4373  -0.0443   -0.208
 147   0.4529  -0.0406   -0.225
 148   0.4686  -0.0370   -0.237
 149   0.4843  -0.0335   -0.259
 150   0.5000  -0.0300   -0.272
 151   0.5157  -0.0267   -0.282
 152   0.5314  -0.0234   -0.296
 153   0.5471  -0.0202   -0.309
 154   0.5627  -0.0170   -0.317
 155   0.5782  -0.0140   -0.340
 156   0.5937  -0.0111   -0.344
 157   0.6091  -0.0084   -0.369
 158   0.6243  -0.0057   -0.377
 159   0.6395  -0.0032   -0.400
 160   0.6545  -0.0007   -0.417
 161   0.6694   0.0015   -0.440
 162   0.6841   0.0037   -0.460
 163   0.6986   0.0057   -0.484
 164   0.7129   0.0075   -0.508
 165   0.7270   0.0092   -0.535
 166   0.7409   0.0107   -0.560
 167   0.7545   0.0121   -0.588
 168   0.7679   0.0133   -0.617
 169   0.7810   0.0143   -0.643
 170   0.7939   0.0152   -0.665
 171   0.8065   0.0159   -0.695
 172   0.8187   0.0164   -0.720
 173   0.8307   0.0168   -0.743
 174   0.8423   0.0170   -0.761
 175   0.8536   0.0170   -0.783
 176   0.8645   0.0169   -0.797
 177   0.8751   0.0167   -0.805
 178   0.8853   0.0163   -0.815
 179   0.8951   0.0158   -0.829
 180   0.9045   0.0152   -0.815
 181   0.9135   0.0145   -0.815
 182   0.9222   0.0137   -0.810
 183   0.9304   0.0128   -0.800
 184   0.9382   0.0118   -0.766
 185   0.9455   0.0108   -0.762
 186   0.9524   0.0098   -0.719
 187   0.9589   0.0087   -0.700
 188   0.9649   0.0077   -0.653
 189   0.9704   0.0067   -0.616
 190   0.9755   0.0057   -0.583
 191   0.9801   0.0047   -0.515
 192   0.9843   0.0038   -0.483
 193   0.9880   0.0030   -0.426
 194   0.9911   0.0022   -0.364
 195   0.9938   0.0016   -0.308
 196   0.9961   0.0010   -0.246
 197   0.9978   0.0006   -0.212
 198   0.9990   0.0003   -0.058
 199   0.9998   0.0001   -0.126

 Maximum panel corner angle =  8.627   at  i,x,y  =  99   0.0002   0.0032

 Enter corner angle criterion for refinement (deg):   4.313
 Enter type of spline parameter (1=uniform, 2=arclength):   1
 Enter refinement x limits:  -0.10000   1.10000
 Number of points added:           32
 Max thickness =     0.171722  at x =   0.158
 Max camber    =     0.028031  at x =   0.768

 Maximum panel corner angle =  4.642   at  i,x,y  = 113   0.0001   0.0024

.GDES   c>  
 Buffer airfoil is not identical to current airfoil

 XFOIL   c>  
 Blunt trailing edge.  Gap =  0.00026

 Paneling parameters used...
   Number of panel nodes       160
   Panel bunching parameter    1.000
   TE/LE panel density ratio   0.150
   Refined-area/LE panel density ratio    0.200
   Top    side refined area x/c limits  1.000 1.000
   Bottom side refined area x/c limits  1.000 1.000

 XFOIL   c>  
.OPERi   c>   Current iteration limit:          20

Enter new iteration limit   i>  
Enter new iteration limit   i>  
Enter new iteration limit   i>  
.OPERi   c>  
 M  =    0.0000
 Re =  0.3000E+06

.OPERv   c>  
 Sonic Cp =    -66.86      Sonic Q/Qinf =     9.138


.OPERv   c>  
 Polar  1 newly created for accumulation
 Airfoil archived with polar: 000141                                          

Enter  polar save filename  OR  <return> for no file   s>  
 New polar save file available

Enter  polar dump filename  OR  <return> for no file   s>  
 Polar dump file will NOT be written

 Polar accumulation enabled

.OPERva   c>   Calculating unit vorticity distributions ...
 Calculating wake trajectory ...
 Calculating source influence matrix ...

 Solving BL system ...

 Initializing BL ...
    side            1  ...
 MRCHUE: Inverse mode at  46     Hk =   4.387
 MRCHUE: Inverse mode at  47     Hk =   5.253
 MRCHUE: Inverse mode at  48     Hk =   6.137
 MRCHUE: Inverse mode at  49     Hk =   7.045
 MRCHUE: Inverse mode at  50     Hk =   7.978
 MRCHUE: Inverse mode at  51     Hk =   6.756
 MRCHUE: Inverse mode at  52     Hk =   2.902
 MRCHUE: Inverse mode at  83     Hk =   2.500
    side            2  ...
 MRCHUE: Inverse mode at  35     Hk =   4.158
 MRCHUE: Inverse mode at  36     Hk =   4.917
 MRCHUE: Inverse mode at  37     Hk =   5.692
 MRCHUE: Inverse mode at  38     Hk =   6.492
 MRCHUE: Inverse mode at  39     Hk =   7.328
 MRCHUE: Inverse mode at  40     Hk =   8.208
[...]
 Side 2  free  transition at x/c =  0.9144   61

   6   rms: 0.5614E+01   max: -.7237E+02   C at   61  2   RLX: 0.007
       a = 13.000      CL =  1.6492
      Cm = -0.1068     CD =  0.03732   =>   CDf =  0.00664    CDp =  0.03067

 Side 1  free  transition at x/c =  0.0456   42
 Side 2  free  transition at x/c =  0.9419   63

   7   rms: 0.1152E+02   max: -.1527E+03   C at   63  2   RLX: 0.003
       a = 13.000      CL =  1.6490
      Cm = -0.1068     CD =  0.03732   =>   CDf =  0.00664    CDp =  0.03069

 Side 1  free  transition at x/c =  0.0456   42
 Side 2  free  transition at x/c =  0.9543   64

   8   rms: 0.1386E+02   max: -.1977E+03   C at   64  2   RLX: 0.003
       a = 13.000      CL =  1.6488
      Cm = -0.1068     CD =  0.03733   =>   CDf =  0.00663    CDp =  0.03069

 Side 1  free  transition at x/c =  0.0456   42
 Side 2  free  transition at x/c =  0.9659   65

   9   rms: 0.1738E+02   max: -.2788E+03   C at   65  2   RLX: 0.002
       a = 13.000      CL =  1.6486
      Cm = -0.1067     CD =  0.03733   =>   CDf =  0.00663    CDp =  0.03069

 Side 1  free  transition at x/c =  0.0456   42
 Side 2  free  transition at x/c =  0.9757   66

  10   rms: 0.1674E+02   max: -.3235E+03   C at   66  2   RLX: 0.002
       a = 13.000      CL =  1.6485
      Cm = -0.1067     CD =  0.03733   =>   CDf =  0.00663    CDp =  0.03070

 Side 1  free  transition at x/c =  0.0456   42
 Side 2  free  transition at x/c =  0.9860   66

  11   rms: 0.2056E+02   max: -.3966E+03   C at   66  2   RLX: 0.001
       a = 13.000      CL =  1.6483
      Cm = -0.1066     CD =  0.03733   =>   CDf =  0.00663    CDp =  0.03070

 Side 1  free  transition at x/c =  0.0456   42
 Side 2  free  transition at x/c =  0.9945   67

  12   rms: 0.5935E+03   max: 0.1610E+05   C at   67  2   RLX: 0.000
       a = 13.000      CL =  1.6488
      Cm = -0.1067     CD =  0.03733   =>   CDf =  0.00664    CDp =  0.03070

 Side 1  free  transition at x/c =  0.0456   42
 Side 2  free  transition at x/c =  0.9904   67

  13   rms: 0.1608E+02   max: 0.4347E+03   C at   67  2   RLX: 0.003
       a = 13.000      CL =  1.6516
      Cm = -0.1072     CD =  0.03744   =>   CDf =  0.00663    CDp =  0.03081

 Side 1  free  transition at x/c =  0.0455   42
 Side 2  free  transition at x/c =  0.9806   66

  14   rms: 0.1814E+02   max: -.3503E+03   C at   66  2   RLX: 0.001
       a = 13.000      CL =  1.6515
      Cm = -0.1071     CD =  0.03743   =>   CDf =  0.00663    CDp =  0.03080

 Side 1  free  transition at x/c =  0.0455   42
 Side 2  free  transition at x/c =  0.9905   67

  15   rms: 0.1506E+02   max: 0.4071E+03   C at   67  2   RLX: 0.004
       a = 13.000      CL =  1.6542
      Cm = -0.1076     CD =  0.03754   =>   CDf =  0.00663    CDp =  0.03090

 Side 1  free  transition at x/c =  0.0455   42
 Side 2  free  transition at x/c =  0.9808   66

  16   rms: 0.1756E+02   max: -.3392E+03   C at   66  2   RLX: 0.001
       a = 13.000      CL =  1.6541
      Cm = -0.1076     CD =  0.03753   =>   CDf =  0.00663    CDp =  0.03090

 Side 1  free  transition at x/c =  0.0455   42
 Side 2  free  transition at x/c =  0.9912   67

  17   rms: 0.1672E+02   max: 0.4522E+03   C at   67  2   RLX: 0.003
       a = 13.000      CL =  1.6566
      Cm = -0.1080     CD =  0.03762   =>   CDf =  0.00663    CDp =  0.03098

 Side 1  free  transition at x/c =  0.0454   42
 Side 2  free  transition at x/c =  0.9824   66

  18   rms: 0.1745E+02   max: -.3369E+03   C at   66  2   RLX: 0.001
       a = 13.000      CL =  1.6564
      Cm = -0.1079     CD =  0.03761   =>   CDf =  0.00662    CDp =  0.03098

 Side 1  free  transition at x/c =  0.0454   42
 Side 2  free  transition at x/c =  0.9927   67

  19   rms: 0.3076E+02   max: 0.8335E+03   C at   67  2   RLX: 0.002
       a = 13.000      CL =  1.6579
      Cm = -0.1082     CD =  0.03765   =>   CDf =  0.00663    CDp =  0.03102

 Side 1  free  transition at x/c =  0.0454   42
 Side 2  free  transition at x/c =  0.9865   66

  20   rms: 0.1814E+02   max: -.3501E+03   C at   66  2   RLX: 0.001
       a = 13.000      CL =  1.6577
      Cm = -0.1081     CD =  0.03766   =>   CDf =  0.00662    CDp =  0.03103

 Side 1  free  transition at x/c =  0.0454   42
 Side 2  free  transition at x/c =  0.9959   67

  21   rms: 0.7096E+02   max: -.1925E+04   C at   67  2   RLX: 0.000
       a = 13.000      CL =  1.6578
      Cm = -0.1081     CD =  0.03765   =>   CDf =  0.00664    CDp =  0.03101

 Side 1  free  transition at x/c =  0.0454   42
 Side 2  free  transition at x/c =  0.9968   67

  22   rms: 0.4162E+02   max: -.1129E+04   C at   67  2   RLX: 0.000
       a = 13.000      CL =  1.6579
      Cm = -0.1082     CD =  0.03766   =>   CDf =  0.00663    CDp =  0.03102

 Side 1  free  transition at x/c =  0.0454   42
 Side 2  free  transition at x/c =  0.9975   67

  23   rms: 0.3029E+02   max: -.8216E+03   C at   67  2   RLX: 0.001
       a = 13.000      CL =  1.6582
      Cm = -0.1082     CD =  0.03766   =>   CDf =  0.00663    CDp =  0.03103

 Side 1  free  transition at x/c =  0.0454   42
 Side 2  free  transition at x/c =  0.9981   67

  24   rms: 0.2299E+02   max: -.6234E+03   C at   67  2   RLX: 0.001
       a = 13.000      CL =  1.6585
      Cm = -0.1082     CD =  0.03768   =>   CDf =  0.00663    CDp =  0.03105

 Side 1  free  transition at x/c =  0.0454   42
 Side 2  free  transition at x/c =  0.9987   67

  25   rms: 0.1747E+02   max: -.4735E+03   C at   67  2   RLX: 0.001
       a = 13.000      CL =  1.6590
      Cm = -0.1083     CD =  0.03770   =>   CDf =  0.00663    CDp =  0.03107
 VISCAL:  Convergence failed
 Calculating wake trajectory ...
 Calculating source influence matrix ...

 Solving BL system ...

 Side 1  free  transition at x/c =  0.0453   42
 Side 2  free  transition at x/c =  0.9993   67

   1   rms: 0.2725E+02   max: -.7376E+03   C at   67  2   RLX: 0.001
       a = 14.000      CL =  1.6588
      Cm = -0.1084     CD =  0.03772   =>   CDf =  0.00665    CDp =  0.03107

 Side 1  free  transition at x/c =  0.0453   42
 Side 2  free  transition at x/c =  1.0000   67

   2   rms: 0.1647E+02   max: -.4438E+03   C at   67  2   RLX: 0.001
       a = 14.000      CL =  1.6599
      Cm = -0.1086     CD =  0.03777   =>   CDf =  0.00624    CDp =  0.03153

 Side 1  free  transition at x/c =  0.0453   43
 Side 2 forced transition at x/c =  1.0001   66

   3   rms: 0.4644E+00   max: 0.6878E+01   T at    2  1   RLX: 0.162
       a = 14.000      CL =  1.6691
      Cm = -0.1050     CD =  0.03933   =>   CDf =  0.00664    CDp =  0.03268

 Side 1  free  transition at x/c =  0.0443   43
 Side 2 forced transition at x/c =  1.0001   66

   4   rms: 0.1846E+00   max: 0.6854E+00   T at   43  1
       a = 14.000      CL =  1.7153
      Cm = -0.0880     CD =  0.04815   =>   CDf =  0.00623    CDp =  0.04193

 MRCHDU: Convergence failed at  44  side 1    Res =  0.7016E+01
 MRCHDU: Convergence failed at  45  side 1    Res =  0.1223E+02
 MRCHDU: Convergence failed at  46  side 1    Res =  0.9808E+01
 MRCHDU: Convergence failed at  47  side 1    Res =  0.1764E+02
 MRCHDU: Convergence failed at  48  side 1    Res =  0.4255E+02
 MRCHDU: Convergence failed at  49  side 1    Res =  0.1765E+04
 MRCHDU: Convergence failed at  50  side 1    Res =  0.4110E+02
 MRCHDU: Convergence failed at  51  side 1    Res =  0.2225E+02
 MRCHDU: Convergence failed at  52  side 1    Res =  0.1770E+02
 MRCHDU: Convergence failed at  53  side 1    Res =  0.1664E+02
 MRCHDU: Convergence failed at  54  side 1    Res =  0.7408E+02
 MRCHDU: Convergence failed at  55  side 1    Res =  0.4491E+02
 MRCHDU: Convergence failed at  56  side 1    Res =  0.2365E+02
 MRCHDU: Convergence failed at  57  side 1    Res =  0.3071E+02
 MRCHDU: Convergence failed at  58  side 1    Res =  0.2287E+02
 MRCHDU: Convergence failed at  59  side 1    Res =  0.3241E+02
 MRCHDU: Convergence failed at  60  side 1    Res =  0.1647E+02
 MRCHDU: Convergence failed at  61  side 1    Res =  0.1341E+03
 MRCHDU: Convergence failed at  62  side 1    Res =  0.2005E+02
 MRCHDU: Convergence failed at  63  side 1    Res =  0.9320E+02
 MRCHDU: Convergence failed at  64  side 1    Res =  0.7445E+02
 MRCHDU: Convergence failed at  65  side 1    Res =  0.5084E+02
 MRCHDU: Convergence failed at  66  side 1    Res =  0.1387E+03
 MRCHDU: Convergence failed at  67  side 1    Res =  0.6711E+02
 MRCHDU: Convergence failed at  68  side 1    Res =  0.8143E+03
 MRCHDU: Convergence failed at  69  side 1    Res =  0.3708E+03
 MRCHDU: Convergence failed at  70  side 1    Res =  0.1170E+03
 MRCHDU: Convergence failed at  71  side 1    Res =  0.1974E+03
 MRCHDU: Convergence failed at  72  side 1    Res =  0.8756E+02
 MRCHDU: Convergence failed at  73  side 1    Res =  0.5951E+02
 MRCHDU: Convergence failed at  74  side 1    Res =  0.8958E+02
 MRCHDU: Convergence failed at  75  side 1    Res =  0.6786E+02
 MRCHDU: Convergence failed at  76  side 1    Res =  0.5570E+02
 MRCHDU: Convergence failed at  77  side 1    Res =  0.1884E+02
 MRCHDU: Convergence failed at  78  side 1    Res =  0.1068E+03
 MRCHDU: Convergence failed at  79  side 1    Res =  0.8880E+02
 MRCHDU: Convergence failed at  80  side 1    Res =  0.7610E+02
 MRCHDU: Convergence failed at  81  side 1    Res =  0.6662E+02
 MRCHDU: Convergence failed at  82  side 1    Res =  0.5928E+02
 MRCHDU: Convergence failed at  83  side 1    Res =  0.3468E+04
 MRCHDU: Convergence failed at  84  side 1    Res =  0.3680E+02
 MRCHDU: Convergence failed at  85  side 1    Res =  0.8449E+02
 MRCHDU: Convergence failed at  86  side 1    Res =  0.6094E+02
 MRCHDU: Convergence failed at  87  side 1    Res =  0.8538E+03
 MRCHDU: Convergence failed at  88  side 1    Res =  0.2586E+03
 MRCHDU: Convergence failed at  89  side 1    Res =  0.1660E+03
 MRCHDU: Convergence failed at  90  side 1    Res =  0.1302E+03
 MRCHDU: Convergence failed at  91  side 1    Res =  0.1146E+03
 MRCHDU: Convergence failed at  92  side 1    Res =  0.1031E+03
 MRCHDU: Convergence failed at  93  side 1    Res =  0.9682E+02
 MRCHDU: Convergence failed at  94  side 1    Res =  0.9445E+02
 MRCHDU: Convergence failed at  95  side 1    Res =  0.9522E+02
 MRCHDU: Convergence failed at  96  side 1    Res =  0.1076E+03
 MRCHDU: Convergence failed at  97  side 1    Res =  0.8908E+02
 MRCHDU: Convergence failed at  70  side 2    Res =  0.4753E+01
 MRCHDU: Convergence failed at  71  side 2    Res =  0.5265E+01
 MRCHDU: Convergence failed at  72  side 2    Res =  0.3493E+01
 MRCHDU: Convergence failed at  73  side 2    Res =  0.2829E+01
 MRCHDU: Convergence failed at  74  side 2    Res =  0.7887E+01
 MRCHDU: Convergence failed at  75  side 2    Res =  0.6148E+01
 MRCHDU: Convergence failed at  76  side 2    Res =  0.6711E+01
 MRCHDU: Convergence failed at  77  side 2    Res =  0.4562E+01
 Side 1  free  transition at x/c =  0.0410   43
 Side 2 forced transition at x/c =  1.0001   65

   5   rms: 0.3116E+01   max: 0.1299E+02   D at   68  2   RLX: 0.115
       a = 14.000      CL =  5.2821
      Cm = -1.3014     CD =  0.00645   =>   CDf =  0.00147    CDp =  0.00498

 MRCHDU: Convergence failed at  55  side 1    Res =  0.4121E+00
 MRCHDU: Convergence failed at  56  side 1    Res =  0.3709E+00
 MRCHDU: Convergence failed at  57  side 1    Res =  0.3125E+00
 MRCHDU: Convergence failed at  58  side 1    Res =  0.1843E+00
 MRCHDU: Convergence failed at  60  side 1    Res =  0.9159E-02
 MRCHDU: Convergence failed at  68  side 2    Res =  0.1572E+02
 MRCHDU: Convergence failed at  69  side 2    Res =  0.7657E+01
 MRCHDU: Convergence failed at  70  side 2    Res =  0.3758E+01
 Side 1  free  transition at x/c =  0.0385   42
 Side 2 forced transition at x/c =  1.0001   65

   6   rms: 0.1034E+01   max: 0.4619E+01   T at   42  1   RLX: 0.142
       a = 14.000      CL =  3.7345
      Cm = -0.7906     CD =  0.08680   =>   CDf =  0.00340    CDp =  0.08339

 Side 1  free  transition at x/c =  0.0358   42
 Side 2 forced transition at x/c =  1.0001   65

   7   rms: 0.7687E+00   max: -.1756E+01   C at   65  2   RLX: 0.220
       a = 14.000      CL =  3.1131
      Cm = -0.6146     CD =  0.10209   =>   CDf =  0.00349    CDp =  0.09860

 Side 1  free  transition at x/c =  0.0365   41
 Side 2 forced transition at x/c =  1.0001   66

   8   rms: 0.6242E+00   max: -.1865E+01   C at   66  2   RLX: 0.268
       a = 14.000      CL =  2.5772
      Cm = -0.4551     CD =  0.11033   =>   CDf =  0.00293    CDp =  0.10741

 Side 1  free  transition at x/c =  0.0378   41
 Side 2 forced transition at x/c =  1.0001   66

   9   rms: 0.9506E+00   max: -.5306E+01   T at   41  1   RLX: 0.094
       a = 14.000      CL =  2.4494
      Cm = -0.4113     CD =  0.11510   =>   CDf =  0.00281    CDp =  0.11229

 MRCHDU: Convergence failed at  59  side 1    Res =  0.8943E-01
 Side 1  free  transition at x/c =  0.0421   42
 Side 2 forced transition at x/c =  1.0001   66

  10   rms: 0.5504E+00   max: -.2565E+01   D at   59  1   RLX: 0.195
       a = 14.000      CL =  2.2065
      Cm = -0.3206     CD =  0.10249   =>   CDf =  0.00325    CDp =  0.09924

 MRCHDU: Convergence failed at  59  side 1    Res =  0.2110E+00
 MRCHDU: Convergence failed at  60  side 1    Res =  0.3469E+00
 Side 1  free  transition at x/c =  0.0451   43
 Side 2 forced transition at x/c =  1.0001   66

  11   rms: 0.1700E+01   max: 0.4411E+01   D at   62  1   RLX: 0.192
       a = 14.000      CL =  1.7302
      Cm = -0.2794     CD =  0.16630   =>   CDf =  0.00284    CDp =  0.16345

 Side 1  free  transition at x/c =  0.0437   41
 Side 2 forced transition at x/c =  1.0001   68

  12   rms: 0.2347E+00   max: -.9804E+00   T at   41  1   RLX: 0.510
       a = 14.000      CL =  1.4295
      Cm = -0.1868     CD =  0.12763   =>   CDf =  0.00221    CDp =  0.12542

 Side 1  free  transition at x/c =  0.0458   41
 Side 2 forced transition at x/c =  1.0001   68

  13   rms: 0.4141E+00   max: 0.5889E+00   n at   64  2   RLX: 0.733
       a = 14.000      CL =  1.1711
      Cm = -0.1802     CD =  0.18139   =>   CDf =  0.00260    CDp =  0.17879

 Side 1  free  transition at x/c =  0.0440   39
 Side 2  free  transition at x/c =  0.6565   51

  14   rms: 0.4435E+00   max: -.1392E+01   D at   46  1   RLX: 0.359
       a = 14.000      CL =  1.1558
      Cm = -0.1490     CD =  0.14347   =>   CDf =  0.00243    CDp =  0.14104

 Side 1  free  transition at x/c =  0.0468   40
 Side 2  free  transition at x/c =  0.7082   52

  15   rms: 0.8317E+00   max: -.6999E+01   C at   52  2   RLX: 0.071
       a = 14.000      CL =  1.0959
      Cm = -0.1189     CD =  0.13556   =>   CDf =  0.00299    CDp =  0.13256

 Side 1  free  transition at x/c =  0.0476   40
 Side 2  free  transition at x/c =  0.7203   53

  16   rms: 0.5957E+00   max: -.4188E+01   C at   53  2   RLX: 0.119
       a = 14.000      CL =  1.1430
      Cm = -0.1183     CD =  0.12956   =>   CDf =  0.00321    CDp =  0.12636

 Side 1  free  transition at x/c =  0.0480   40
 Side 2  free  transition at x/c =  0.7398   54

  17   rms: 0.4419E+00   max: -.3890E+01   C at   54  2   RLX: 0.129
       a = 14.000      CL =  1.1858
      Cm = -0.1166     CD =  0.12488   =>   CDf =  0.00315    CDp =  0.12173

 Side 1  free  transition at x/c =  0.0475   41
 Side 2  free  transition at x/c =  0.7570   54

  18   rms: 0.4901E+00   max: -.4082E+01   C at   54  2   RLX: 0.122
       a = 14.000      CL =  1.2290
      Cm = -0.1147     CD =  0.11897   =>   CDf =  0.00349    CDp =  0.11548

 Side 1  free  transition at x/c =  0.0470   41
 Side 2  free  transition at x/c =  0.7776   55

  19   rms: 0.6135E+00   max: -.5533E+01   C at   55  2   RLX: 0.090
       a = 14.000      CL =  1.2635
      Cm = -0.1117     CD =  0.11354   =>   CDf =  0.00356    CDp =  0.10998

 Side 1  free  transition at x/c =  0.0465   41
 Side 2  free  transition at x/c =  0.7952   56

  20   rms: 0.9759E+00   max: -.7918E+01   C at   56  2   RLX: 0.063
       a = 14.000      CL =  1.2984
      Cm = -0.1073     CD =  0.10659   =>   CDf =  0.00336    CDp =  0.10323

 Side 1  free  transition at x/c =  0.0460   42
 Side 2  free  transition at x/c =  0.8151   56

  21   rms: 0.1218E+01   max: -.1135E+02   C at   56  2   RLX: 0.044
       a = 14.000      CL =  1.3222
      Cm = -0.1018     CD =  0.10148   =>   CDf =  0.00380    CDp =  0.09768

 Side 1  free  transition at x/c =  0.0456   42
 Side 2  free  transition at x/c =  0.8309   56

  22   rms: 0.1243E+01   max: -.4373E+01   D at   63  1   RLX: 0.114
       a = 14.000      CL =  1.4159
      Cm = -0.0911     CD =  0.08237   =>   CDf =  0.00394    CDp =  0.07843

 Side 1  free  transition at x/c =  0.0442   42
 Side 2  free  transition at x/c =  0.8862   60

  23   rms: 0.1538E+01   max: -.1929E+02   C at   60  2   RLX: 0.026
       a = 14.000      CL =  1.4284
      Cm = -0.0859     CD =  0.08259   =>   CDf =  0.00408    CDp =  0.07851

 Side 1  free  transition at x/c =  0.0440   43
 Side 2  free  transition at x/c =  0.8954   59

  24   rms: 0.2238E+01   max: 0.3489E+02   D at    2  1   RLX: 0.032
       a = 14.000      CL =  1.4500
      Cm = -0.0837     CD =  0.07893   =>   CDf =  0.00460    CDp =  0.07432

 Side 1  free  transition at x/c =  0.0437   43
 Side 2  free  transition at x/c =  0.9113   60

  25   rms: 0.1080E+02   max: -.1576E+03   C at   60  2   RLX: 0.003
       a = 14.000      CL =  1.4505
      Cm = -0.0833     CD =  0.07923   =>   CDf =  0.00470    CDp =  0.07453
 VISCAL:  Convergence failed
 Calculating wake trajectory ...
 Calculating source influence matrix ...

 Solving BL system ...

 Side 1  free  transition at x/c =  0.0437   43
 Side 2  free  transition at x/c =  0.9129   60

   1   rms: 0.1613E+02   max: -.2110E+03   C at   60  2   RLX: 0.002
       a = 15.000      CL =  1.4501
      Cm = -0.0830     CD =  0.07906   =>   CDf =  0.00474    CDp =  0.07432

 Side 1  free  transition at x/c =  0.0437   43
 Side 2  free  transition at x/c =  0.9141   60

   2   rms: 0.1773E+02   max: -.2168E+03   C at   60  2   RLX: 0.002
       a = 15.000      CL =  1.4507
      Cm = -0.0829     CD =  0.07888   =>   CDf =  0.00474    CDp =  0.07414

 Side 1  free  transition at x/c =  0.0437   43
 Side 2  free  transition at x/c =  0.9105   60

   3   rms: 0.8064E+00   max: -.3894E+01   T at   60  2   RLX: 0.128
       a = 15.000      CL =  1.5213
      Cm = -0.0760     CD =  0.06662   =>   CDf =  0.00482    CDp =  0.06180

 Side 1  free  transition at x/c =  0.0428   42
 Side 2 forced transition at x/c =  1.0001   66

   4   rms: 0.3058E+00   max: -.1224E+01   D at   60  2   RLX: 0.408
       a = 15.000      CL =  1.6402
      Cm = -0.0835     CD =  0.06145   =>   CDf =  0.00465    CDp =  0.05680

 Side 1  free  transition at x/c =  0.0398   43
 Side 2 forced transition at x/c =  1.0001   65

   5   rms: 0.9857E-01   max: -.6451E+00   D at   61  2   RLX: 0.775
       a = 15.000      CL =  1.6912
      Cm = -0.0857     CD =  0.06174   =>   CDf =  0.00555    CDp =  0.05619

 Side 1  free  transition at x/c =  0.0388   42
 Side 2 forced transition at x/c =  1.0001   65

   6   rms: 0.2697E-01   max: -.2555E+00   D at   61  2
       a = 15.000      CL =  1.6758
      Cm = -0.0866     CD =  0.06495   =>   CDf =  0.00590    CDp =  0.05905

 Side 1  free  transition at x/c =  0.0387   42
 Side 2 forced transition at x/c =  1.0001   65

   7   rms: 0.2124E-02   max: -.2784E-01   D at   61  2
       a = 15.000      CL =  1.6758
      Cm = -0.0867     CD =  0.06479   =>   CDf =  0.00583    CDp =  0.05897

 Side 1  free  transition at x/c =  0.0387   42
 Side 2 forced transition at x/c =  1.0001   65

   8   rms: 0.3989E-04   max: 0.4044E-03   D at   82  1
       a = 15.000      CL =  1.6758
      Cm = -0.0867     CD =  0.06478   =>   CDf =  0.00582    CDp =  0.05896

 Point added to stored polar  1
 Point written tGot result {'DD': 0.01539, 'Dmin': 0.01584, 'LL': -0.6053}
Completed successfully in 2.60 seconds. [{'DD': 0.01539, 'Dmin': 0.01584, 'LL': -0.6053}]
o save file  000141M0.1.log                                  
 Dump file unspecified or not available

.OPERva   c>  
 XFOIL   c>  
