Job launching after 0.47 seconds in submission.
Running python job.
Changed into dir /home/simonx/Documents/Udacity/Projects/capstone/PESM_NSGA2_CST_XFoil
Importing evaluationFunctionXFoil.py
Running evaluationFunctionXFoil.main()
0
1
2
0.04
resp: 
 ===================================================
  XFOIL Version 6.97
  Copyright (C) 2000   Mark Drela, Harold Youngren

  This software comes with ABSOLUTELY NO WARRANTY,
    subject to the GNU General Public License.

  Caveat computor
 ===================================================

 File  xfoil.def  not found

   QUIT    Exit program

  .OPER    Direct operating point(s)
  .MDES    Complex mapping design routine
  .QDES    Surface speed design routine
  .GDES    Geometry design routine

   SAVE f  Write airfoil to labeled coordinate file
   PSAV f  Write airfoil to plain coordinate file
   ISAV f  Write airfoil to ISES coordinate file
   MSAV f  Write airfoil to MSES coordinate file
   REVE    Reverse written-airfoil node ordering
   DELI i  Change written-airfoil file delimiters

   LOAD f  Read buffer airfoil from coordinate file
   NACA i  Set NACA 4,5-digit airfoil and buffer airfoil
   INTE    Set buffer airfoil by interpolating two airfoils
   NORM    Buffer airfoil normalization toggle
   HALF    Halve the number of points in buffer airfoil
   XYCM rr Change CM reference location, currently  0.25000 0.00000

   BEND    Display structural properties of current airfoil

   PCOP    Set current-airfoil panel nodes directly from buffer airfoil points
   PANE    Set current-airfoil panel nodes ( 160 ) based on curvature
  .PPAR    Show/change paneling

  .PLOP    Plotting options

   WDEF f  Write  current-settings file
   RDEF f  Reread current-settings file
   NAME s  Specify new airfoil name
   NINC    Increment name version number

   Z       Zoom    | (available in all menus)
   U       Unzoom  | 

 XFOIL   c>   ...............................................

  G raphics-enable flag:        T
  S ize of plot object          10.00"
  A spect ratio of plot object   0.5500
  P age dimensions              11.00 x  8.50"
  M argins from page edges       0.00",  0.00"
  F ont size (relative)          0.0150
  W indow/screen size fraction   0.8000
  B lowup input method:        Cursor    
  O rientation of plot:        Landscape 
  C olor PostScript output?     F

      Option, Value   (or <Return>)    c>   ...............................................

  G raphics-enable flag:        F
  S ize of plot object          10.00"
  A spect ratio of plot object   0.5500
  P age dimensions              11.00 x  8.50"
  M argins from page edges       0.00",  0.00"
  F ont size (relative)          0.0150
  W indow/screen size fraction   0.8000
  B lowup input method:        Cursor    
  O rientation of plot:        Landscape 
  C olor PostScript output?     F

      Option, Value   (or <Return>)    c>  
 XFOIL   c>  
 Labeled airfoil file.  Name:  000227                                          

 Number of input coordinate points: 200
 Clockwise ordering
 Max thickness =     0.135338  at x =   0.158
 Max camber    =     0.120477  at x =   0.407

  LE  x,y  =  -0.00007   0.00205  |   Chord =   0.99995
  TE  x,y  =   0.99988   0.00006  |

 Current airfoil nodes set from buffer airfoil nodes ( 200 )

 XFOIL   c>  
 You are working with the buffer airfoil

.GDES   c>  
  i       x        y      angle
   2   0.9990   0.0005    0.038
   3   0.9978   0.0011    0.042
   4   0.9961   0.0020    0.034
   5   0.9938   0.0031    0.056
   6   0.9911   0.0044    0.075
   7   0.9880   0.0060    0.069
   8   0.9843   0.0078    0.113
   9   0.9801   0.0098    0.096
  10   0.9755   0.0121    0.129
  11   0.9704   0.0146    0.129
  12   0.9649   0.0172    0.145
  13   0.9589   0.0201    0.166
  14   0.9524   0.0232    0.179
  15   0.9455   0.0265    0.188
  16   0.9382   0.0299    0.208
  17   0.9304   0.0335    0.226
  18   0.9222   0.0373    0.240
  19   0.9135   0.0412    0.260
  20   0.9045   0.0453    0.267
  21   0.8951   0.0494    0.295
  22   0.8853   0.0537    0.308
  23   0.8751   0.0581    0.329
  24   0.8645   0.0626    0.344
  25   0.8536   0.0672    0.360
  26   0.8423   0.0718    0.385
  27   0.8307   0.0765    0.397
  28   0.8187   0.0812    0.421
  29   0.8065   0.0859    0.433
  30   0.7939   0.0906    0.455
  31   0.7810   0.0953    0.471
  32   0.7679   0.1000    0.491
  33   0.7545   0.1047    0.507
  34   0.7409   0.1093    0.522
  35   0.7270   0.1139    0.542
  36   0.7129   0.1184    0.558
  37   0.6986   0.1228    0.573
  38   0.6841   0.1271    0.588
  39   0.6694   0.1313    0.601
  40   0.6545   0.1353    0.621
  41   0.6395   0.1393    0.630
  42   0.6243   0.1431    0.643
  43   0.6091   0.1467    0.660
  44   0.5937   0.1502    0.667
  45   0.5782   0.1535    0.686
  46   0.5627   0.1567    0.692
  47   0.5471   0.1596    0.707
  48   0.5314   0.1624    0.722
  49   0.5157   0.1650    0.724
  50   0.5000   0.1673    0.747
  51   0.4843   0.1695    0.754
  52   0.4686   0.1714    0.769
  53   0.4529   0.1732    0.780
  54   0.4373   0.1747    0.796
  55   0.4218   0.1760    0.809
  56   0.4063   0.1770    0.834
  57   0.3909   0.1779    0.843
  58   0.3757   0.1785    0.866
  59   0.3605   0.1788    0.892
  60   0.3455   0.1789    0.909
  61   0.3306   0.1788    0.940
  62   0.3159   0.1785    0.964
  63   0.3014   0.1779    0.998
  64   0.2871   0.1771    1.036
  65   0.2730   0.1760    1.065
  66   0.2591   0.1747    1.112
  67   0.2455   0.1731    1.154
  68   0.2321   0.1713    1.203
  69   0.2190   0.1692    1.255
  70   0.2061   0.1669    1.311
  71   0.1935   0.1644    1.369
  72   0.1813   0.1616    1.439
  73   0.1693   0.1586    1.504
  74   0.1577   0.1553    1.581
  75   0.1464   0.1518    1.659
  76   0.1355   0.1480    1.738
  77   0.1249   0.1440    1.827
  78   0.1147   0.1397    1.922
  79   0.1049   0.1353    2.020
  80   0.0955   0.1306    2.111
  81   0.0865   0.1256    2.222
  82   0.0778   0.1205    2.329
  83   0.0696   0.1151    2.435
  84   0.0618   0.1095    2.544
  85   0.0545   0.1038    2.660
  86   0.0476   0.0978    2.775
  87   0.0411   0.0916    2.884
  88   0.0351   0.0853    2.995
  89   0.0296   0.0788    3.100
  90   0.0245   0.0722    3.210
  91   0.0199   0.0654    3.304
  92   0.0157   0.0584    3.406
  93   0.0120   0.0514    3.475
  94   0.0089   0.0443    3.567
  95   0.0062   0.0370    3.626
  96   0.0039   0.0297    3.676
  97   0.0022   0.0223    3.735
  98   0.0010   0.0149    3.754
  99   0.0002   0.0075    3.777
 100   0.0000   0.0000   10.863
 101   0.0002  -0.0016   16.798
 102   0.0010  -0.0031   14.257
 103   0.0022  -0.0046   11.483
 104   0.0039  -0.0059    9.151
 105   0.0062  -0.0072    7.376
 106   0.0089  -0.0083    6.058
 107   0.0120  -0.0092    5.052
 108   0.0157  -0.0099    4.304
 109   0.0199  -0.0104    3.663
 110   0.0245  -0.0106    3.169
 111   0.0296  -0.0106    2.760
 112   0.0351  -0.0103    2.385
 113   0.0411  -0.0097    2.092
 114   0.0476  -0.0088    1.792
 115   0.0545  -0.0077    1.557
 116   0.0618  -0.0063    1.329
 117   0.0696  -0.0046    1.110
 118   0.0778  -0.0027    0.930
 119   0.0865  -0.0005    0.745
 120   0.0955   0.0019    0.591
 121   0.1049   0.0046    0.432
 122   0.1147   0.0074    0.285
 123   0.1249   0.0104    0.163
 124   0.1355   0.0135    0.029
 125   0.1464   0.0167   -0.084
 126   0.1577   0.0200   -0.194
 127   0.1693   0.0234   -0.291
 128   0.1813   0.0268   -0.383
 129   0.1935   0.0302   -0.476
 130   0.2061   0.0336   -0.550
 131   0.2190   0.0369   -0.615
 132   0.2321   0.0402   -0.679
 133   0.2455   0.0433   -0.735
 134   0.2591   0.0463   -0.776
 135   0.2730   0.0492   -0.817
 136   0.2871   0.0519   -0.846
 137   0.3014   0.0544   -0.862
 138   0.3159   0.0568   -0.877
 139   0.3306   0.0589   -0.887
 140   0.3455   0.0609   -0.879
 141   0.3605   0.0626   -0.875
 142   0.3757   0.0641   -0.856
 143   0.3909   0.0654   -0.837
 144   0.4063   0.0664   -0.813
 145   0.4218   0.0673   -0.784
 146   0.4373   0.0679   -0.746
 147   0.4529   0.0684   -0.718
 148   0.4686   0.0686   -0.670
 149   0.4843   0.0687   -0.639
 150   0.5000   0.0686   -0.598
 151   0.5157   0.0683   -0.556
 152   0.5314   0.0679   -0.522
 153   0.5471   0.0673   -0.479
 154   0.5627   0.0666   -0.448
 155   0.5782   0.0658   -0.413
 156   0.5937   0.0648   -0.384
 157   0.6091   0.0638   -0.359
 158   0.6243   0.0627   -0.330
 159   0.6395   0.0615   -0.318
 160   0.6545   0.0602   -0.297
 161   0.6694   0.0589   -0.286
 162   0.6841   0.0575   -0.274
 163   0.6986   0.0561   -0.279
 164   0.7129   0.0546   -0.269
 165   0.7270   0.0531   -0.278
 166   0.7409   0.0515   -0.282
 167   0.7545   0.0498   -0.291
 168   0.7679   0.0482   -0.299
 169   0.7810   0.0465   -0.320
 170   0.7939   0.0448   -0.332
 171   0.8065   0.0430   -0.347
 172   0.8187   0.0412   -0.372
 173   0.8307   0.0393   -0.381
 174   0.8423   0.0375   -0.408
 175   0.8536   0.0356   -0.420
 176   0.8645   0.0337   -0.441
 177   0.8751   0.0317   -0.451
 178   0.8853   0.0298   -0.471
 179   0.8951   0.0278   -0.480
 180   0.9045   0.0258   -0.492
 181   0.9135   0.0239   -0.487
 182   0.9222   0.0219   -0.501
 183   0.9304   0.0200   -0.489
 184   0.9382   0.0181   -0.498
 185   0.9455   0.0162   -0.478
 186   0.9524   0.0144   -0.470
 187   0.9589   0.0126   -0.460
 188   0.9649   0.0109   -0.437
 189   0.9704   0.0093   -0.414
 190   0.9755   0.0078   -0.377
 191   0.9801   0.0064   -0.366
 192   0.9843   0.0051   -0.325
 193   0.9880   0.0040   -0.296
 194   0.9911   0.0029   -0.246
 195   0.9938   0.0021   -0.220
 196   0.9961   0.0013   -0.185
 197   0.9978   0.0008   -0.123
 198   0.9990   0.0003   -0.079
 199   0.9998   0.0001   -0.045

 Maximum panel corner angle = 16.798   at  i,x,y  = 101   0.0002  -0.0016

 Enter corner angle criterion for refinement (deg):   8.399
 Enter type of spline parameter (1=uniform, 2=arclength):   1
 Enter refinement x limits:  -0.10000   1.10000
 Number of points added:           10
 Max thickness =     0.135250  at x =   0.158
 Max camber    =     0.121772  at x =   0.406

 Maximum panel corner angle = 23.874   at  i,x,y  = 103   0.0001  -0.0014

.GDES   c>  
 Buffer airfoil is not identical to current airfoil

 XFOIL   c>  
 Blunt trailing edge.  Gap =  0.00028

 Paneling parameters used...
   Number of panel nodes       160
   Panel bunching parameter    1.000
   TE/LE panel density ratio   0.150
   Refined-area/LE panel density ratio    0.200
   Top    side refined area x/c limits  1.000 1.000
   Bottom side refined area x/c limits  1.000 1.000

 XFOIL   c>  
Enter output filename   s>  
 XFOIL   c>  
.OPERi   c>   Current iteration limit:          20

Enter new iteration limit   i>  
Enter new iteration limit   i>  
Enter new iteration limit   i>  
.OPERi   c>  
 M  =    0.0000
 Re =  0.3000E+06

.OPERv   c>  
 Sonic Cp =   -420.65      Sonic Q/Qinf =    22.825


.OPERv   c>  
 Polar  1 newly created for accumulation
 Airfoil archived with polar: 000227                                          

Enter  polar save filename  OR  <return> for no file   s>  
 New polar save file available

Enter  polar dump filename  OR  <return> for no file   s>  
 Polar dump file will NOT be written

 Polar accumulation enabled

.OPERva   c>   Calculating unit vorticity distributions ...
 Calculating wake trajectory ...
 Calculating source influence matrix ...

 Solving BL system ...

 Initializing BL ...
    side            1  ...
 MRCHUE: Inverse mode at  53     Hk =   4.469
 MRCHUE: Inverse mode at  54     Hk =   5.302
 MRCHUE: Inverse mode at  55     Hk =   6.120
 MRCHUE: Inverse mode at  56     Hk =   6.926
 MRCHUE: Inverse mode at  57     Hk =   7.723
 MRCHUE: Inverse mode at  58     Hk =   7.481
 MRCHUE: Inverse mode at  59     Hk =   4.044
 MRCHUE: Inverse mode at  60     Hk =   2.500
 MRCHUE: Inverse mode at  84     Hk =   2.500
 MRCHUE: Inverse mode at  85     Hk =   2.500
 MRCHUE: Convergence failed at  86  side 1    Res =  0.5729E+01
    side            2  ...
 MRCHUE: Inverse mode at  24     Hk =   3.800
 MRCHUE: Inverse mode at  25     Hk =   4.350
 MRCHUE: Inverse mode at  26     Hk =   4.914
 MRCHUE: Inverse mode at  27     Hk =   5.499
 MRCHUE: Inverse mode at  28     Hk =   6.111
 MRCHUE: Inverse mode at  29     Hk =   6.755
 MRCHUE: Inverse mode at  30     Hk =   7.435
 MRCHUE: Inverse mode at  31     Hk =   8.151
 MRCHUE: Inverse mode at  32     Hk =   8.898
 MRCHUE: Inverse mode at  33     Hk =   9.668
 MRCHUE: Inverse mode at  34     Hk =   7.393
 MRCHUE: Inverse mode at  35     Hk =   4.838
 MRCHUE: Inverse mode at  36     Hk =   3.269

 MRCHDU: Convergence failed at  86  side 1    Res =  0.4958E+01
 Side 1  free  transition at x/c =  0.4819   58
 Side 2  free  transition at x/c =  0.1877   34

   1   rms: 0.2883E+00   max: 0.1330E+01   T at   34  2   RLX: 0.454
       a =  2.000      CL =  1.6826
      Cm = -0.2867     CD =  0.01303   =>   CDf =  0.00858    CDp =  0.00445

 MRCHDU: Convergence failed at  60  side 1    Res =  0.1771E+01
 Side 1  free  transition at x/c =  0.5034   59
 Side 2  free  transition at x/c =  0.1751   33

   2   rms: 0.1713E+00   max: 0.9830E+00   T at   33  2   RLX: 0.739
       a =  2.000      CL =  1.6125
      Cm = -0.2719     CD =  0.01540   =>   CDf =  0.00813    CDp =  0.00727

 Side 1  free  transition at x/c =  0.5392   61
 Side 2  free  transition at x/c =  0.1606   32

   3   rms: 0.6738E-01   max: 0.4467E+00   T at   32  2
       a =  2.000      CL =  1.5726
      Cm = -0.2625     CD =  0.01686   =>   CDf =  0.00794    CDp =  0.00892

 Side 1  free  transition at x/c =  0.5492   61
 Side 2  free  transition at x/c =  0.1516   32

   4   rms: 0.3856E-01   max: -.2657E+00   D at   34  2
       a =  2.000      CL =  1.5684
      Cm = -0.2616     CD =  0.01705   =>   CDf =  0.00748    CDp =  0.00957

 Side 1  free  transition at x/c =  0.5468   61
 Side 2  free  transition at x/c =  0.1518   32

   5   rms: 0.3869E-02   max: 0.3668E-01   D at   33  2
       a =  2.000      CL =  1.5684
      Cm = -0.2616     CD =  0.01706   =>   CDf =  0.00754    CDp =  0.00952

 Side 1  free  transition at x/c =  0.5467   61
 Side 2  free  transition at x/c =  0.1515   32

   6   rms: 0.1093E-03   max: 0.1043E-02   D at   33  2
       a =  2.000      CL =  1.5684
      Cm = -0.2616     CD =  0.01705   =>   CDf =  0.00754    CDp =  0.00951

 Side 1  free  transition at x/c =  0.5467   61
 Side 2  free  transition at x/c =  0.1515   32

   7   rms: 0.1039E-05   max: -.6124E-05   T at   32  2
       a =  2.000      CL =  1.5684
      Cm = -0.2616     CD =  0.01705   =>   CDf =  0.00754    CDp =  0.00951

 Point added to stored polar  1
 Point written to save file  000227M0.04.log                                 
 Dump file unspecified or not available
 Calculating wake trajectory ...
 Calculating source influence matrix ...

 Solving BL system ...

 Side 1  free  transition at x/c =  0.5467   61
 Side 2  free  transition at x/c =  0.1515   32

   1   rms: 0.1951E+00   max: -.2178E+01   T at   32  2   RLX: 0.230
       a =  3.000      CL =  1.5900
      Cm = -0.2609     CD =  0.01736   =>   CDf =  0.00735    CDp =  0.01001

 MRCHDU: Convergence failed at  33  side 2    Res =  0.1241E+01
 MRCHDU: Convergence failed at  34  side 2    Res =  0.3219E+01
 MRCHDU: Convergence failed at  35  side 2    Res =  0.1594E+01
 MRCHDU: Convergence failed at  36  side 2    Res =  0.2697E+01
 MRCHDU: Convergence failed at  37  side 2    Res =  0.4540E+01
 MRCHDU: Convergence failed at  38  side 2    Res =  0.8917E+01
 MRCHDU: Convergence failed at  39  side 2    Res =  0.2723E+02
 MRCHDU: Convergence failed at  40  side 2    Res =  0.5750E+02
 MRCHDU: Convergence failed at  41  side 2    Res =  0.1882E+02
 MRCHDU: Convergence failed at  42  side 2    Res =  0.1283E+02
 MRCHDU: Convergence failed at  43  side 2    Res =  0.1049E+02
 MRCHDU: Convergence failed at  44  side 2    Res =  0.9272E+01
 MRCHDU: Convergence failed at  45  side 2    Res =  0.8507E+01
 MRCHDU: Convergence failed at  46  side 2    Res =  0.7990E+01
 MRCHDU: Convergence failed at  47  side 2    Res =  0.7570E+01
 MRCHDU: Convergence failed at  48  side 2    Res =  0.7244E+01
 MRCHDU: Convergence failed at  49  side 2    Res =  0.6969E+01
 MRCHDU: Convergence failed at  50  side 2    Res =  0.6773E+01
 MRCHDU: Convergence failed at  51  side 2    Res =  0.6656E+01
 MRCHDU: Convergence failed at  52  side 2    Res =  0.6642E+01
 MRCHDU: Convergence failed at  53  side 2    Res =  0.6783E+01
 MRCHDU: Convergence failed at  54  side 2    Res =  0.7115E+01
 MRCHDU: Convergence failed at  55  side 2    Res =  0.7741E+01
 MRCHDU: Convergence failed at  56  side 2    Res =  0.8848E+01
 MRCHDU: Convergence failed at  57  side 2    Res =  0.1089E+02
 MRCHDU: Convergence failed at  58  side 2    Res =  0.1512E+02
 MRCHDU: Convergence failed at  59  side 2    Res =  0.2752E+02
 MRCHDU: Convergence failed at  60  side 2    Res =  0.3044E+03
 MRCHDU: Convergence failed at  61  side 2    Res =  0.2926E+02
 MRCHDU: Convergence failed at  62  side 2    Res =  0.1382E+02
 MRCHDU: Convergence failed at  63  side 2    Res =  0.8977E+01
 MRCHDU: Convergence failed at  64  side 2    Res =  0.6688E+01
 MRCHDU: Convergence failed at  65  side 2    Res =  0.5275E+01
 MRCHDU: Convergence failed at  66  side 2    Res =  0.4343E+01
 MRCHDU: Convergence failed at  67  side 2    Res =  0.3595E+01
 MRCHDU: Convergence failed at  68  side 2    Res =  0.3061E+01
 MRCHDU: Convergence failed at  69  side 2    Res =  0.2624E+01
 MRCHDU: Convergence failed at  70  side 2    Res =  0.2237E+01
 MRCHDU: Convergence failed at  71  side 2    Res =  0.1892E+01
 MRCHDU: Convergence failed at  72  side 2    Res =  0.1548E+01
 MRCHDU: Convergence failed at  73  side 2    Res =  0.1223E+01
 Side 1  free  transition at x/c =  0.5402   61
 Side 2  free  transition at x/c =  0.1627   32

   2   rms: 0.6336E+00   max: -.6756E+01   D at    2  1   RLX: 0.074
       a =  3.000      CL =  1.4492
      Cm = -0.2203     CD =  0.01621   =>   CDf =  0.00545    CDp =  0.01076

 Side 1  free  transition at x/c =  0.5375   61
 Side 2  free  transition at x/c =  0.1655   32

   3   rms: 0.1976E+00   max: -.1169E+01   T at   32  2   RLX: 0.428
       a =  3.000      CL =  1.5456
      Cm = -0.2381     CD =  0.01773   =>   CDf =  0.00830    CDp =  0.00943

 Side 1  free  transition at x/c =  0.5250   61
 Side 2  free  transition at x/c =  0.1781   33

   4   rms: 0.1324E+00   max: 0.9960E+00   D at   33  2
       a =  3.000      CL =  1.6664
      Cm = -0.2599     CD =  0.01784   =>   CDf =  0.00802    CDp =  0.00982

 MRCHDU: Convergence failed at  35  side 2    Res =  0.1729E+01
 MRCHDU: Convergence failed at  36  side 2    Res =  0.4574E+02
 MRCHDU: Convergence failed at  37  side 2    Res =  0.2620E+01
 MRCHDU: Convergence failed at  38  side 2    Res =  0.1965E+01
 MRCHDU: Convergence failed at  39  side 2    Res =  0.2003E+01
 MRCHDU: Convergence failed at  40  side 2    Res =  0.2111E+01
 MRCHDU: Convergence failed at  41  side 2    Res =  0.2265E+01
 MRCHDU: Convergence failed at  42  side 2    Res =  0.2337E+01
 MRCHDU: Convergence failed at  43  side 2    Res =  0.2345E+01
 MRCHDU: Convergence failed at  44  side 2    Res =  0.2516E+01
 MRCHDU: Convergence failed at  45  side 2    Res =  0.2508E+01
 MRCHDU: Convergence failed at  46  side 2    Res =  0.2475E+01
 MRCHDU: Convergence failed at  47  side 2    Res =  0.2410E+01
 MRCHDU: Convergence failed at  48  side 2    Res =  0.2350E+01
 MRCHDU: Convergence failed at  49  side 2    Res =  0.2259E+01
 MRCHDU: Convergence failed at  50  side 2    Res =  0.2170E+01
 MRCHDU: Convergence failed at  51  side 2    Res =  0.2087E+01
 MRCHDU: Convergence failed at  52  side 2    Res =  0.2018E+01
 MRCHDU: Convergence failed at  53  side 2    Res =  0.1967E+01
 MRCHDU: Convergence failed at  54  side 2    Res =  0.2170E+01
 MRCHDU: Convergence failed at  55  side 2    Res =  0.2259E+01
 MRCHDU: Convergence failed at  56  side 2    Res =  0.2431E+01
 MRCHDU: Convergence failed at  57  side 2    Res =  0.2765E+01
 MRCHDU: Convergence failed at  58  side 2    Res =  0.3175E+01
 MRCHDU: Convergence failed at  59  side 2    Res =  0.3920E+01
 MRCHDU: Convergence failed at  60  side 2    Res =  0.5548E+01
 MRCHDU: Convergence failed at  61  side 2    Res =  0.1033E+02
 MRCHDU: Convergence failed at  62  side 2    Res =  0.5164E+02
 MRCHDU: Convergence failed at  63  side 2    Res =  0.1515E+02
 MRCHDU: Convergence failed at  64  side 2    Res =  0.6188E+01
 MRCHDU: Convergence failed at  65  side 2    Res =  0.3794E+01
 MRCHDU: Convergence failed at  66  side 2    Res =  0.2442E+01
 MRCHDU: Convergence failed at  67  side 2    Res =  0.1994E+01
 MRCHDU: Convergence failed at  68  side 2    Res =  0.1662E+01
 Side 1  free  transition at x/c =  0.5146   60
 Side 2  free  transition at x/c =  0.1921   34

   5   rms: 0.2261E+00   max: 0.1038E+01   T at   35  2   RLX: 0.506
       a =  3.000      CL =  1.6288
      Cm = -0.2519     CD =  0.01708   =>   CDf =  0.00586    CDp =  0.01122

 Side 1  free  transition at x/c =  0.5130   60
 Side 2  free  transition at x/c =  0.1865   34

   6   rms: 0.9911E-01   max: -.8144E+00   T at    2  2   RLX: 0.614
       a =  3.000      CL =  1.6478
      Cm = -0.2559     CD =  0.01811   =>   CDf =  0.00785    CDp =  0.01026

 Side 1  free  transition at x/c =  0.5128   60
 Side 2  free  transition at x/c =  0.1852   34

   7   rms: 0.3796E-01   max: 0.2108E+00   D at   38  2
       a =  3.000      CL =  1.6562
      Cm = -0.2578     CD =  0.01806   =>   CDf =  0.00773    CDp =  0.01033

 Side 1  free  transition at x/c =  0.5127   60
 Side 2  free  transition at x/c =  0.1835   34

   8   rms: 0.1250E-02   max: -.1248E-01   D at   38  2
       a =  3.000      CL =  1.6558
      Cm = -0.2577     CD =  0.01806   =>   CDf =  0.00765    CDp =  0.01042

 Side 1  free  transition at x/c =  0.5127   60
 Side 2  free  transition at x/c =  0.1833   34

   9   rms: 0.2600E-04   max: 0.3032E-03   T at   34  2
       a =  3.000      CL =  1.6558
      Cm = -0.2577     CD =  0.01806   =>   CDf =  0.00765    CDp =  0.01041

 Point added to stored polar  1
 Point written to save file  000227M0.04.log                                 
 Dump file unspecified or not available
 Calculating wake trajectory ...
 Calculating source influence matrix ...

 Solving BL system ...

 Side 1  free  transition at x/c =  0.5127   60
 Side 2  free  transition at x/c =  0.1833   34

   1   rms: 0.1883E+00   max: -.1835E+01   T at   34  2   RLX: 0.272
       a =  4.000      CL =  1.6769
      Cm = -0.2563     CD =  0.01834   =>   CDf =  0.00743    CDp =  0.01090

 Side 1  free  transition at x/c =  0.5036   60
 Side 2  free  transition at x/c =  0.1925   33

   2   rms: 0.1524E+00   max: -.1517E+01   D at    2  1   RLX: 0.330
       a =  4.000      CL =  1.6892
      Cm = -0.2536     CD =  0.01902   =>   CDf =  0.00775    CDp =  0.01127

 Side 1  free  transition at x/c =  0.4949   60
 Side 2  free  transition at x/c =  0.2008   34

   3   rms: 0.8437E-01   max: -.7694E+00   T at   34  2   RLX: 0.650
       a =  4.000      CL =  1.7148
      Cm = -0.2522     CD =  0.01933   =>   CDf =  0.00772    CDp =  0.01161

 Side 1  free  transition at x/c =  0.4845   59
 Side 2  free  transition at x/c =  0.2114   34

   4   rms: 0.5125E-01   max: -.3312E+00   T at   34  2
       a =  4.000      CL =  1.7265
      Cm = -0.2510     CD =  0.01971   =>   CDf =  0.00784    CDp =  0.01187

 Side 1  free  transition at x/c =  0.4798   59
 Side 2  free  transition at x/c =  0.2207   35

   5   rms: 0.2577E-01   max: 0.3964E+00   D at   35  2
       a =  4.000      CL =  1.7286
      Cm = -0.2515     CD =  0.01964   =>   CDf =  0.00772    CDp =  0.01192

 Side 1  free  transition at x/c =  0.4799   59
 Side 2  free  transition at x/c =  0.2194   35

   6   rms: 0.3463E-02   max: 0.4022E-01   D at   35  2
       a =  4.000      CL =  1.7286
      Cm = -0.2515     CD =  0.01964   =>   CDf =  0.00773    CDp =  0.01192

 Side 1  free  transition at x/c =  0.4799   59
 Side 2  free  transition at x/c =  0.2191   35

   7   rms: 0.1637E-04   max: 0.1724E-03   D at   39  2
       a =  4.000      CL =  1.7286
      Cm = -0.2515     CD =  0.01964   =>   CDf =  0.00773    CDp =  0.01191

 Point added to stored polar  1
 Point written to save file  000227M0.04.log                                 
 Dump file unspecified or not available
 Calculating wake trajectory ...
 Calculating source influence matrix ...

 Solving BL system ...

 Side 1  free  transition at x/c =  0.4799   59
 Side 2  free  transition at x/c =  0.2191   35

   1   rms: 0.1631E+00   max: -.1486E+01   T at   35  2   RLX: 0.337
       a =  5.000      CL =  1.7525
      Cm = -0.2495     CD =  0.02023   =>   CDf =  0.00749    CDp =  0.01274

 Side 1  free  transition at x/c =  0.4673   60
 Side 2  free  transition at x/c =  0.2309   34

   2   rms: 0.1525E+00   max: -.1616E+01   D at    2  1   RLX: 0.309
       a =  5.000      CL =  1.7664
      Cm = -0.2479     CD =  0.02127   =>   CDf =  0.00789    CDp =  0.01338

 Side 1  free  transition at x/c =  0.4623   59
 Side 2  free  transition at x/c =  0.2433   35

   3   rms: 0.7534E-01   max: 0.7056E+00   D at   35  2
       a =  5.000      CL =  1.7962
      Cm = -0.2452     CD =  0.02165   =>   CDf =  0.00778    CDp =  0.01387

 Side 1  free  transition at x/c =  0.4460   58
 Side 2  free  transition at x/c =  0.2635   36

   4   rms: 0.1069E-01   max: -.9283E-01   D at   35  2
       a =  5.000      CL =  1.7969
      Cm = -0.2453     CD =  0.02190   =>   CDf =  0.00787    CDp =  0.01403

 Side 1  free  transition at x/c =  0.4474   59
 Side 2  free  transition at x/c =  0.2661   36

   5   rms: 0.4678E-02   max: -.5699E-01   D at   58  1
       a =  5.000      CL =  1.7961
      Cm = -0.2452     CD =  0.02189   =>   CDf =  0.00787    CDp =  0.01402

 Side 1  free  transition at x/c =  0.4480   59
 Side 2  free  transition at x/c =  0.2661   36

   6   rms: 0.1152E-02   max: -.6017E-02   D at   60  1
       a =  5.000      CL =  1.7970
      Cm = -0.2453     CD =  0.02188   =>   CDf =  0.00780    CDp =  0.01407

 Side 1  free  transition at x/c =  0.4478   59
 Side 2  free  transition at x/c =  0.2663   36

   7   rms: 0.7179E-05   max: -.6381E-04   D at   60  1
       a =  5.000      CL =  1.7970
      Cm = -0.2453     CD =  0.02188   =>   CDf =  0.00781    CDp =  0.01407

 Point added to stored polar  1
 Point written to save file  000227M0.04.log                                 
 Dump file unspecified or not available
 Calculating wake trajectory ...
 Calculating source influence matrix ...

 Solving BL system ...

 Side 1  free  transition at x/c =  0.4478   59
 Side 2  free  transition at x/c =  0.2663   36

   1   rms: 0.1686E+00   max: -.1442E+01   T at   36  2   RLX: 0.347
       a =  6.000      CL =  1.8206
      Cm = -0.2433     CD =  0.02289   =>   CDf =  0.00783    CDp =  0.01506

 MRCHDU: Convergence failed at  38  side 2    Res =  0.1299E+02
 MRCHDU: Convergence failed at  39  side 2    Res =  0.4367E+01
 MRCHDU: Convergence failed at  40  side 2    Res =  0.2251E+02
 MRCHDU: Convergence failed at  41  side 2    Res =  0.4476E+02
 MRCHDU: Convergence failed at  42  side 2    Res =  0.2256E+02
 MRCHDU: Convergence failed at  43  side 2    Res =  0.2628E+02
 MRCHDU: Convergence failed at  44  side 2    Res =  0.1270E+03
 MRCHDU: Convergence failed at  45  side 2    Res =  0.2934E+02
 MRCHDU: Convergence failed at  46  side 2    Res =  0.1155E+02
 MRCHDU: Convergence failed at  47  side 2    Res =  0.5832E+01
 Side 1  free  transition at x/c =  0.4382   58
 Side 2  free  transition at x/c =  0.2933   38

   2   rms: 0.1815E+00   max: -.1219E+01   D at   46  2   RLX: 0.410
       a =  6.000      CL =  1.8318
      Cm = -0.2410     CD =  0.02327   =>   CDf =  0.00732    CDp =  0.01594

 Side 1  free  transition at x/c =  0.4286   58
 Side 2  free  transition at x/c =  0.3216   39

   3   rms: 0.6621E-01   max: -.5971E+00   D at   40  2   RLX: 0.837
       a =  6.000      CL =  1.8560
      Cm = -0.2392     CD =  0.02466   =>   CDf =  0.00761    CDp =  0.01704

 Side 1  free  transition at x/c =  0.4210   58
 Side 2  free  transition at x/c =  0.3526   40

   4   rms: 0.2688E-01   max: 0.3531E+00   D at   40  2
       a =  6.000      CL =  1.8627
      Cm = -0.2398     CD =  0.02457   =>   CDf =  0.00766    CDp =  0.01692

 Side 1  free  transition at x/c =  0.4170   58
 Side 2  free  transition at x/c =  0.3573   40

   5   rms: 0.1298E-01   max: -.2157E+00   C at   40  2
       a =  6.000      CL =  1.8628
      Cm = -0.2398     CD =  0.02461   =>   CDf =  0.00764    CDp =  0.01697

 Side 1  free  transition at x/c =  0.4171   58
 Side 2  free  transition at x/c =  0.3605   41

   6   rms: 0.9768E-02   max: -.1475E+00   C at   41  2
       a =  6.000      CL =  1.8630
      Cm = -0.2398     CD =  0.02460   =>   CDf =  0.00763    CDp =  0.01698

 Side 1  free  transition at x/c =  0.4171   58
 Side 2  free  transition at x/c =  0.3619   41

   7   rms: 0.1464E-02   max: 0.2629E-01   C at   41  2
       a =  6.000      CL =  1.8630
      Cm = -0.2398     CD =  0.02461   =>   CDf =  0.00760    CDp =  0.01700

 Side 1  free  transition at x/c =  0.4171   58
 Side 2  free  transition at x/c =  0.3612   41

   8   rms: 0.1002E-04   max: -.1614E-03   D at   42  2
       a =  6.000      CL =  1.8630
      Cm = -0.2398     CD =  0.02461   =>   CDf =  0.00761    CDp =  0.01700

 Point added to stored polar  1
 Point written to save file  000227M0.04.log                                 
 Dump file unspecified or not available
 Calculating wake trajectory ...
 Calculating source influence matrix ...

 Solving BL system ...

 Side 1  free  transition at x/c =  0.4171   58
 Side 2  free  transition at x/c =  0.3612   41

   1   rms: 0.3631E+00   max: -.5776E+01   C at   41  2   RLX: 0.087
       a =  7.000      CL =  1.8685
      Cm = -0.2394     CD =  0.02487   =>   CDf =  0.00763    CDp =  0.01724

 Side 1  free  transition at x/c =  0.4144   58
 Side 2  free  transition at x/c =  0.3807   42

   2   rms: 0.4555E+00   max: -.7786E+01   C at   42  2   RLX: 0.064
       a =  7.000      CL =  1.8732
      Cm = -0.2393     CD =  0.02509   =>   CDf =  0.00762    CDp =  0.01746

 Side 1  free  transition at x/c =  0.4127   58
 Side 2  free  transition at x/c =  0.3973   42

   3   rms: 0.1985E+00   max: -.1810E+01   C at   42  2   RLX: 0.276
       a =  7.000      CL =  1.8873
      Cm = -0.2379     CD =  0.02595   =>   CDf =  0.00763    CDp =  0.01832

 Side 1  free  transition at x/c =  0.4069   57
 Side 2 forced transition at x/c =  1.0001   73

   4   rms: 0.1193E+00   max: -.3964E+00   n at   48  2
       a =  7.000      CL =  1.9189
      Cm = -0.2329     CD =  0.02735   =>   CDf =  0.00681    CDp =  0.02054

 Side 1  free  transition at x/c =  0.3871   57
 Side 2 forced transition at x/c =  1.0001   72

   5   rms: 0.2166E-01   max: -.1397E+00   T at    2  1
       a =  7.000      CL =  1.9136
      Cm = -0.2322     CD =  0.02778   =>   CDf =  0.00731    CDp =  0.02047

 Side 1  free  transition at x/c =  0.3896   57
 Side 2 forced transition at x/c =  1.0001   72

   6   rms: 0.3520E-02   max: -.2722E-01   D at    6  1
       a =  7.000      CL =  1.9147
      Cm = -0.2323     CD =  0.02773   =>   CDf =  0.00722    CDp =  0.02051

 Side 1  free  transition at x/c =  0.3894   57
 Side 2 forced transition at x/c =  1.0001   72

   7   rms: 0.7145E-04   max: 0.4237E-03   D at   34  2
       a =  7.000      CL =  1.9147
      Cm = -0.2323     CD =  0.02773   =>   CDf =  0.00722    CDp =  0.02051

 Point added to stored polar  1
 Point written to save file  000227M0.04.log                                 
 Dump file unspecified or not available
 Calculating wake trajectory ...
 Calculating source influence matrix ...

 Solving BL system ...

 Side 1  free  transition at x/c =  0.3894   57
 Side 2 forced transition at x/c =  1.0001   72

   1   rms: 0.1424E+00   max: -.2632E+00   n at   57  2   RLX: 0.952
       a =  8.000      CL =  1.9695
      Cm = -0.2268     CD =  0.03119   =>   CDf =  0.00724    CDp =  0.02395

 Side 1  free  transition at x/c =  0.3630   56
 Side 2 forced transition at x/c =  1.0001   72

   2   rms: 0.2173E-01   max: -.2565E+00   D at   56  1
       a =  8.000      CL =  1.9578
      Cm = -0.2248     CD =  0.03235   =>   CDf =  0.00738    CDp =  0.02497

 Side 1  free  transition at x/c =  0.3648   56
 Side 2 forced transition at x/c =  1.0001   72

   3   rms: 0.6912E-02   max: -.3383E-01   D at   81  1
       a =  8.000      CL =  1.9634
      Cm = -0.2255     CD =  0.03206   =>   CDf =  0.00719    CDp =  0.02487

 Side 1  free  transition at x/c =  0.3636   56
 Side 2 forced transition at x/c =  1.0001   72

   4   rms: 0.2282E-03   max: -.1502E-02   D at   81  1
       a =  8.000      CL =  1.9635
      Cm = -0.2255     CD =  0.03207   =>   CDf =  0.00723    CDp =  0.02484

 Side 1  free  transition at x/c =  0.3636   56
 Side 2 forced transition at x/c =  1.0001   72

   5   rms: 0.9046E-05   max: 0.5821E-04   C at   72  2
       a =  8.000      CL =  1.9635
      Cm = -0.2255     CD =  0.03207   =>   CDf =  0.00723    CDp =  0.02484

 Point added to stored polar  1
 Point written to save file  000227M0.04.log                                 
 Dump file unspecified or not available
 Calculating wake trajectory ...
 Calculating source influence matrix ...

 Solving BL system ...

 Side 1  free  transition at x/c =  0.3636   56
 Side 2 forced transition at x/c =  1.0001   72

   1   rms: 0.1290E+00   max: 0.2477E+00   D at   85  2   RLX: 0.827
       a =  9.000      CL =  2.0021
      Cm = -0.2201     CD =  0.03607   =>   CDf =  0.00690    CDp =  0.02918

 Side 1  free  transition at x/c =  0.3443   56
 Side 2 forced transition at x/c =  1.0001   71

   2   rms: 0.2626E-01   max: -.2602E+00   D at   56  1
       a =  9.000      CL =  2.0018
      Cm = -0.2183     CD =  0.03743   =>   CDf =  0.00731    CDp =  0.03012

 Side 1  free  transition at x/c =  0.3402   56
 Side 2 forced transition at x/c =  1.0001   71

   3   rms: 0.5156E-02   max: -.3415E-01   D at   81  1
       a =  9.000      CL =  2.0051
      Cm = -0.2186     CD =  0.03723   =>   CDf =  0.00723    CDp =  0.03000

 Side 1  free  transition at x/c =  0.3399   56
 Side 2 forced transition at x/c =  1.0001   71

   4   rms: 0.1797E-03   max: -.1255E-02   D at   82  2
       a =  9.000      CL =  2.0052
      Cm = -0.2186     CD =  0.03724   =>   CDf =  0.00725    CDp =  0.03000

 Side 1  free  transition at x/c =  0.3399   56
 Side 2 forced transition at x/c =  1.0001   71

   5   rms: 0.5919E-05   max: 0.6634E-04   C at   71  2
       a =  9.000      CL =  2.0052
      Cm = -0.2186     CD =  0.03724   =>   CDf =  0.00725    CDp =  0.03000

 Point added to stored polar  1
 Point written to save file  000227M0.04.log                                 
 Dump file unspecified or not available
 Calculating wake trajectory ...
 Calculating source influence matrix ...

 Solving BL system ...

 Side 1  free  transition at x/c =  0.3399   56
 Side 2 forced transition at x/c =  1.0001   71

   1   rms: 0.1257E+00   max: 0.2668E+00   D at   85  2   RLX: 0.727
       a = 10.000      CL =  2.0322
      Cm = -0.2137     CD =  0.04164   =>   CDf =  0.00690    CDp =  0.03474

 Side 1  free  transition at x/c =  0.3255   56
 Side 2 forced transition at x/c =  1.0001   70

   2   rms: 0.3818E-01   max: -.2919E+00   D at   56  1
       a = 10.000      CL =  2.0375
      Cm = -0.2119     CD =  0.04363   =>   CDf =  0.00724    CDp =  0.03639

 Side 1  free  transition at x/c =  0.3184   56
 Side 2 forced transition at x/c =  1.0001   70

   3   rms: 0.9759E-02   max: -.6746E-01   D at   80  1
       a = 10.000      CL =  2.0421
      Cm = -0.2122     CD =  0.04314   =>   CDf =  0.00724    CDp =  0.03589

 Side 1  free  transition at x/c =  0.3182   56
 Side 2 forced transition at x/c =  1.0001   70

   4   rms: 0.3588E-03   max: -.2833E-02   D at   81  2
       a = 10.000      CL =  2.0424
      Cm = -0.2122     CD =  0.04319   =>   CDf =  0.00727    CDp =  0.03593

 Side 1  free  transition at x/c =  0.3182   56
 Side 2 forced transition at x/c =  1.0001   70

   5   rms: 0.5550E-05   max: 0.4968E-04   C at   70  2
       a = 10.000      CL =  2.0424
      Cm = -0.2122     CD =  0.04319   =>   CDf =  0.00727    CDp =  0.03593

 Point added to stored polar  1
 Point written to save file  000227M0.04.log                                 
 Dump file unspecified or not available
 Calculating wake trajectory ...
 Calculating source influence matrix ...

 Solving BL system ...

 Side 1  free  transition at x/c =  0.3182   56
 Side 2 forced transition at x/c =  1.0001   70

   1   rms: 0.1252E+00   max: -.4541E+00   D at   56  1   RLX: 0.659
       a = 11.000      CL =  2.0720
      Cm = -0.2084     CD =  0.04692   =>   CDf =  0.00690    CDp =  0.04002

 Side 1  free  transition at x/c =  0.3055   56
 Side 2 forced transition at x/c =  1.0001   69

   2   rms: 0.5059E-01   max: -.3861E+00   D at   56  1
       a = 11.000      CL =  2.0689
      Cm = -0.2060     CD =  0.05054   =>   CDf =  0.00720    CDp =  0.04334

 Side 1  free  transition at x/c =  0.2995   56
 Side 2 forced transition at x/c =  1.0001   69

   3   rms: 0.1448E-01   max: -.1001E+00   D at   80  1
       a = 11.000      CL =  2.0765
      Cm = -0.2063     CD =  0.04961   =>   CDf =  0.00716    CDp =  0.04245

 Side 1  free  transition at x/c =  0.2984   55
 Side 2 forced transition at x/c =  1.0001   69

   4   rms: 0.2098E-02   max: -.2480E-01   C at   55  1
       a = 11.000      CL =  2.0763
      Cm = -0.2064     CD =  0.04986   =>   CDf =  0.00721    CDp =  0.04265

 Side 1  free  transition at x/c =  0.2984   55
 Side 2 forced transition at x/c =  1.0001   69

   5   rms: 0.1798E-03   max: -.1149E-02   D at   79  1
       a = 11.000      CL =  2.0765
      Cm = -0.2064     CD =  0.04983   =>   CDf =  0.00719    CDp =  0.04264

 Side 1  free  transition at x/c =  0.2984   55
 Side 2 forced transition at x/c =  1.0001   69

   6   rms: 0.8458E-05   max: 0.9017E-04   C at   69  2
       a = 11.000      CL =  2.0765
      Cm = -0.2064     CD =  0.04983   =>   CDf =  0.00719    CDp =  0.04264

 Point added to stored polar  1
 Point written to save file  000227M0.04.log                                 
 Dump file unspecified or not available
 Calculating wake trajectory ...
 Calculating source influence matrix ...

 Solving BL system ...

 Side 1  free  transition at x/c =  0.2984   55
 Side 2 forced transition at x/c =  1.0001   69

   1   rms: 0.1194E+00   max: -.4295E+00   C at   55  1   RLX: 0.586
       a = 12.000      CL =  2.0943
      Cm = -0.2038     CD =  0.05464   =>   CDf =  0.00680    CDp =  0.04784

 Side 1  free  transition at x/c =  0.2843   56
 Side 2 forced transition at x/c =  1.0001   68

   2   rms: 0.5242E-01   max: -.4320E+00   D at   56  1
       a = 12.000      CL =  2.0978
      Cm = -0.2008     CD =  0.05829   =>   CDf =  0.00715    CDp =  0.05114

 Side 1  free  transition at x/c =  0.2772   55
 Side 2 forced transition at x/c =  1.0001   68

   3   rms: 0.1134E-01   max: -.1147E+00   D at   56  1
       a = 12.000      CL =  2.0936
      Cm = -0.2009     CD =  0.05883   =>   CDf =  0.00703    CDp =  0.05180

 Side 1  free  transition at x/c =  0.2766   55
 Side 2 forced transition at x/c =  1.0001   68

   4   rms: 0.2193E-02   max: -.1306E-01   D at   78  1
       a = 12.000      CL =  2.0951
      Cm = -0.2010     CD =  0.05860   =>   CDf =  0.00697    CDp =  0.05163

 Side 1  free  transition at x/c =  0.2763   55
 Side 2 forced transition at x/c =  1.0001   68

   5   rms: 0.1565E-03   max: -.9899E-03   D at   81  2
       a = 12.000      CL =  2.0953
      Cm = -0.2010     CD =  0.05862   =>   CDf =  0.00698    CDp =  0.05164

 Side 1  free  transition at x/c =  0.2763   55
 Side 2 forced transition at x/c =  1.0001   68

   6   rms: 0.6020E-05   max: -.4610E-04   D at   81  2
       a = 12.000      CL =  2.0953
      Cm = -0.2010     CD =  0.05862   =>   CDf =  0.00698    CDp =  0.05164

 Point added to stored polar  1
 Point written to save file  000227M0.04.log                                 
 Dump file unspecified or not available
 Calculating wake trajectory ...
 Calculating source influence matrix ...

 Solving BL system ...

 Side 1  free  transition at x/c =  0.2763   55
 Side 2 forced transition at x/c =  1.0001   68

   1   rms: 0.1244E+00   max: 0.4408E+00   D at   76  1   RLX: 0.518
       a = 13.000      CL =  2.1014
      Cm = -0.1988     CD =  0.06437   =>   CDf =  0.00700    CDp =  0.05737

 Side 1  free  transition at x/c =  0.2648   54
 Side 2 forced transition at x/c =  1.0001   68

   2   rms: 0.5422E-01   max: -.2595E+00   C at   54  1
       a = 13.000      CL =  2.1110
      Cm = -0.1967     CD =  0.06873   =>   CDf =  0.00658    CDp =  0.06216

 Side 1  free  transition at x/c =  0.2539   55
 Side 2 forced transition at x/c =  1.0001   67

   3   rms: 0.8852E-02   max: -.9261E-01   D at   55  1
       a = 13.000      CL =  2.1061
      Cm = -0.1962     CD =  0.06872   =>   CDf =  0.00687    CDp =  0.06186

 Side 1  free  transition at x/c =  0.2554   55
 Side 2 forced transition at x/c =  1.0001   67

   4   rms: 0.1630E-02   max: -.8937E-02   D at   77  1
       a = 13.000      CL =  2.1072
      Cm = -0.1963     CD =  0.06859   =>   CDf =  0.00680    CDp =  0.06178

 Side 1  free  transition at x/c =  0.2553   55
 Side 2 forced transition at x/c =  1.0001   67

   5   rms: 0.1126E-03   max: -.7367E-03   D at   81  2
       a = 13.000      CL =  2.1073
      Cm = -0.1963     CD =  0.06860   =>   CDf =  0.00681    CDp =  0.06179

 Side 1  free  transition at x/c =  0.2553   55
 Side 2 forced transition at x/c =  1.0001   67

   6   rms: 0.4290E-05   max: -.3021E-04   D at   81  2
       a = 13.000      CL =  2.1073
      Cm = -0.1963     CD =  0.06860   =>   CDf =  0.00681    CDp =  0.06179

 Point added to stored polar  1
 Point written to save file  000227M0.04.log                                 
 Dump file unspecified or not available
 Calculating wake trajectory ...
 Calculating source influence matrix ...

 Solving BL system ...

 Side 1  free  transition at x/c =  0.2553   55
 Side 2 forced transition at x/c =  1.0001   67

   1   rms: 0.1187E+00   max: 0.4251E+00   D at   75  1   RLX: 0.468
       a = 14.000      CL =  2.1114
      Cm = -0.1946     CD =  0.07426   =>   CDf =  0.00683    CDp =  0.06743

 Side 1  free  transition at x/c =  0.2452   54
 Side 2 forced transition at x/c =  1.0001   67

   2   rms: 0.6173E-01   max: -.2530E+00   C at   54  1
       a = 14.000      CL =  2.1137
      Cm = -0.1931     CD =  0.08097   =>   CDf =  0.00637    CDp =  0.07460

 Side 1  free  transition at x/c =  0.2343   55
 Side 2 forced transition at x/c =  1.0001   66

   3   rms: 0.7651E-02   max: -.4711E-01   D at   77  1
       a = 14.000      CL =  2.1098
      Cm = -0.1924     CD =  0.08014   =>   CDf =  0.00671    CDp =  0.07343

 Side 1  free  transition at x/c =  0.2354   55
 Side 2 forced transition at x/c =  1.0001   66

   4   rms: 0.1564E-02   max: -.7976E-02   D at    4  1
       a = 14.000      CL =  2.1109
      Cm = -0.1924     CD =  0.08005   =>   CDf =  0.00665    CDp =  0.07340

 Side 1  free  transition at x/c =  0.2352   55
 Side 2 forced transition at x/c =  1.0001   66

   5   rms: 0.1153E-03   max: -.6795E-03   D at   81  2
       a = 14.000      CL =  2.1110
      Cm = -0.1925     CD =  0.08007   =>   CDf =  0.00666    CDp =  0.07341

 Side 1  free  transition at x/c =  0.2352   55
 Side 2 forced transition at x/c =  1.0001   66

   6   rms: 0.3899E-05   max: -.3062E-04   D at   81  2
       a = 14.000      CL =  2.1110
      Cm = -0.1925     CD =  0.08007   =>   CDf =  0.00666    CDp =  0.07341

 Point added to stored polar  1
 Point written to save file  000227M0.04.log                                 
 Dump file unspecified or not available
 Calculating wake trajectory ...
 Calculating source influence matrix ...

 Solving BL system ...

 Side 1  free  transition at x/c =  0.2352   55
 Side 2 forced transition at x/c =  1.0001   66

   1   rms: 0.1177E+00   max: -.4561E+00   D at   56  1   RLX: 0.421
       a = 15.000      CL =  2.1104
      Cm = -0.1911     CD =  0.08589   =>   CDf =  0.00669    CDp =  0.07920

 Side 1  free  transition at x/c =  0.2256   54
 Side 2 forced transition at x/c =  1.0001   66

   2   rms: 0.7251E-01   max: -.3688E+00   D at   54  1
       a = 15.000      CL =  2.1057
      Cm = -0.1907     CD =  0.09521   =>   CDf =  0.00661    CDp =  0.08860

 Side 1  free  transition at x/c =  0.2128   53
 Side 2 forced transition at x/c =  1.0001   66

   3   rms: 0.1114E-01   max: -.9287E-01   D at   53  1
       a = 15.000      CL =  2.1012
      Cm = -0.1898     CD =  0.09365   =>   CDf =  0.00649    CDp =  0.08716

 Side 1  free  transition at x/c =  0.2133   53
 Side 2 forced transition at x/c =  1.0001   66

   4   rms: 0.1962E-02   max: -.7772E-02   D at   74  1
       a = 15.000      CL =  2.1029
      Cm = -0.1899     CD =  0.09366   =>   CDf =  0.00644    CDp =  0.08722

 Side 1  free  transition at x/c =  0.2129   53
 Side 2 forced transition at x/c =  1.0001   66

   5   rms: 0.1265E-03   max: -.7846E-03   D at   81  2
       a = 15.000      CL =  2.1030
      Cm = -0.1900     CD =  0.09368   =>   CDf =  0.00645    CDp =  0.08724

 Side 1  free  transition at x/c =  0.2129   53
 Side 2 forced transition at x/c =  1.0001   66

   6   rms: 0.6435E-05   max: 0.9346E-04   D at    2  2
       a = 15.000      CL =  2.1030
      Cm = -0.1900     CD =  0.09368   =>   CDf =  0.00645    CDp =  0.08724

 Point added to stored polar  1
 Point written to save file  000227M0.04.log                                 
 Dump file unspecified or not available

.OPERva   c>  
 XFOIL   c>  
0.1
resp: 
 ===================================================
  XFOIL Version 6.97
  Copyright (C) 2000   Mark Drela, Harold Youngren

  This software comes with ABSOLUTELY NO WARRANTY,
    subject to the GNU General Public License.

  Caveat computor
 ===================================================

 File  xfoil.def  not found

   QUIT    Exit program

  .OPER    Direct operating point(s)
  .MDES    Complex mapping design routine
  .QDES    Surface speed design routine
  .GDES    Geometry design routine

   SAVE f  Write airfoil to labeled coordinate file
   PSAV f  Write airfoil to plain coordinate file
   ISAV f  Write airfoil to ISES coordinate file
   MSAV f  Write airfoil to MSES coordinate file
   REVE    Reverse written-airfoil node ordering
   DELI i  Change written-airfoil file delimiters

   LOAD f  Read buffer airfoil from coordinate file
   NACA i  Set NACA 4,5-digit airfoil and buffer airfoil
   INTE    Set buffer airfoil by interpolating two airfoils
   NORM    Buffer airfoil normalization toggle
   HALF    Halve the number of points in buffer airfoil
   XYCM rr Change CM reference location, currently  0.25000 0.00000

   BEND    Display structural properties of current airfoil

   PCOP    Set current-airfoil panel nodes directly from buffer airfoil points
   PANE    Set current-airfoil panel nodes ( 160 ) based on curvature
  .PPAR    Show/change paneling

  .PLOP    Plotting options

   WDEF f  Write  current-settings file
   RDEF f  Reread current-settings file
   NAME s  Specify new airfoil name
   NINC    Increment name version number

   Z       Zoom    | (available in all menus)
   U       Unzoom  | 

 XFOIL   c>   ...............................................

  G raphics-enable flag:        T
  S ize of plot object          10.00"
  A spect ratio of plot object   0.5500
  P age dimensions              11.00 x  8.50"
  M argins from page edges       0.00",  0.00"
  F ont size (relative)          0.0150
  W indow/screen size fraction   0.8000
  B lowup input method:        Cursor    
  O rientation of plot:        Landscape 
  C olor PostScript output?     F

      Option, Value   (or <Return>)    c>   ...............................................

  G raphics-enable flag:        F
  S ize of plot object          10.00"
  A spect ratio of plot object   0.5500
  P age dimensions              11.00 x  8.50"
  M argins from page edges       0.00",  0.00"
  F ont size (relative)          0.0150
  W indow/screen size fraction   0.8000
  B lowup input method:        Cursor    
  O rientation of plot:        Landscape 
  C olor PostScript output?     F

      Option, Value   (or <Return>)    c>  
 XFOIL   c>  
 Labeled airfoil file.  Name:  000227                                          

 Number of input coordinate points: 200
 Clockwise ordering
 Max thickness =     0.135338  at x =   0.158
 Max camber    =     0.120477  at x =   0.407

  LE  x,y  =  -0.00007   0.00205  |   Chord =   0.99995
  TE  x,y  =   0.99988   0.00006  |

 Current airfoil nodes set from buffer airfoil nodes ( 200 )

 XFOIL   c>  
 You are working with the buffer airfoil

.GDES   c>  
  i       x        y      angle
   2   0.9990   0.0005    0.038
   3   0.9978   0.0011    0.042
   4   0.9961   0.0020    0.034
   5   0.9938   0.0031    0.056
   6   0.9911   0.0044    0.075
   7   0.9880   0.0060    0.069
   8   0.9843   0.0078    0.113
   9   0.9801   0.0098    0.096
  10   0.9755   0.0121    0.129
  11   0.9704   0.0146    0.129
  12   0.9649   0.0172    0.145
  13   0.9589   0.0201    0.166
  14   0.9524   0.0232    0.179
  15   0.9455   0.0265    0.188
  16   0.9382   0.0299    0.208
  17   0.9304   0.0335    0.226
  18   0.9222   0.0373    0.240
  19   0.9135   0.0412    0.260
  20   0.9045   0.0453    0.267
  21   0.8951   0.0494    0.295
  22   0.8853   0.0537    0.308
  23   0.8751   0.0581    0.329
  24   0.8645   0.0626    0.344
  25   0.8536   0.0672    0.360
  26   0.8423   0.0718    0.385
  27   0.8307   0.0765    0.397
  28   0.8187   0.0812    0.421
  29   0.8065   0.0859    0.433
  30   0.7939   0.0906    0.455
  31   0.7810   0.0953    0.471
  32   0.7679   0.1000    0.491
  33   0.7545   0.1047    0.507
  34   0.7409   0.1093    0.522
  35   0.7270   0.1139    0.542
  36   0.7129   0.1184    0.558
  37   0.6986   0.1228    0.573
  38   0.6841   0.1271    0.588
  39   0.6694   0.1313    0.601
  40   0.6545   0.1353    0.621
  41   0.6395   0.1393    0.630
  42   0.6243   0.1431    0.643
  43   0.6091   0.1467    0.660
  44   0.5937   0.1502    0.667
  45   0.5782   0.1535    0.686
  46   0.5627   0.1567    0.692
  47   0.5471   0.1596    0.707
  48   0.5314   0.1624    0.722
  49   0.5157   0.1650    0.724
  50   0.5000   0.1673    0.747
  51   0.4843   0.1695    0.754
  52   0.4686   0.1714    0.769
  53   0.4529   0.1732    0.780
  54   0.4373   0.1747    0.796
  55   0.4218   0.1760    0.809
  56   0.4063   0.1770    0.834
  57   0.3909   0.1779    0.843
  58   0.3757   0.1785    0.866
  59   0.3605   0.1788    0.892
  60   0.3455   0.1789    0.909
  61   0.3306   0.1788    0.940
  62   0.3159   0.1785    0.964
  63   0.3014   0.1779    0.998
  64   0.2871   0.1771    1.036
  65   0.2730   0.1760    1.065
  66   0.2591   0.1747    1.112
  67   0.2455   0.1731    1.154
  68   0.2321   0.1713    1.203
  69   0.2190   0.1692    1.255
  70   0.2061   0.1669    1.311
  71   0.1935   0.1644    1.369
  72   0.1813   0.1616    1.439
  73   0.1693   0.1586    1.504
  74   0.1577   0.1553    1.581
  75   0.1464   0.1518    1.659
  76   0.1355   0.1480    1.738
  77   0.1249   0.1440    1.827
  78   0.1147   0.1397    1.922
  79   0.1049   0.1353    2.020
  80   0.0955   0.1306    2.111
  81   0.0865   0.1256    2.222
  82   0.0778   0.1205    2.329
  83   0.0696   0.1151    2.435
  84   0.0618   0.1095    2.544
  85   0.0545   0.1038    2.660
  86   0.0476   0.0978    2.775
  87   0.0411   0.0916    2.884
  88   0.0351   0.0853    2.995
  89   0.0296   0.0788    3.100
  90   0.0245   0.0722    3.210
  91   0.0199   0.0654    3.304
  92   0.0157   0.0584    3.406
  93   0.0120   0.0514    3.475
  94   0.0089   0.0443    3.567
  95   0.0062   0.0370    3.626
  96   0.0039   0.0297    3.676
  97   0.0022   0.0223    3.735
  98   0.0010   0.0149    3.754
  99   0.0002   0.0075    3.777
 100   0.0000   0.0000   10.863
 101   0.0002  -0.0016   16.798
 102   0.0010  -0.0031   14.257
 103   0.0022  -0.0046   11.483
 104   0.0039  -0.0059    9.151
 105   0.0062  -0.0072    7.376
 106   0.0089  -0.0083    6.058
 107   0.0120  -0.0092    5.052
 108   0.0157  -0.0099    4.304
 109   0.0199  -0.0104    3.663
 110   0.0245  -0.0106    3.169
 111   0.0296  -0.0106    2.760
 112   0.0351  -0.0103    2.385
 113   0.0411  -0.0097    2.092
 114   0.0476  -0.0088    1.792
 115   0.0545  -0.0077    1.557
 116   0.0618  -0.0063    1.329
 117   0.0696  -0.0046    1.110
 118   0.0778  -0.0027    0.930
 119   0.0865  -0.0005    0.745
 120   0.0955   0.0019    0.591
 121   0.1049   0.0046    0.432
 122   0.1147   0.0074    0.285
 123   0.1249   0.0104    0.163
 124   0.1355   0.0135    0.029
 125   0.1464   0.0167   -0.084
 126   0.1577   0.0200   -0.194
 127   0.1693   0.0234   -0.291
 128   0.1813   0.0268   -0.383
 129   0.1935   0.0302   -0.476
 130   0.2061   0.0336   -0.550
 131   0.2190   0.0369   -0.615
 132   0.2321   0.0402   -0.679
 133   0.2455   0.0433   -0.735
 134   0.2591   0.0463   -0.776
 135   0.2730   0.0492   -0.817
 136   0.2871   0.0519   -0.846
 137   0.3014   0.0544   -0.862
 138   0.3159   0.0568   -0.877
 139   0.3306   0.0589   -0.887
 140   0.3455   0.0609   -0.879
 141   0.3605   0.0626   -0.875
 142   0.3757   0.0641   -0.856
 143   0.3909   0.0654   -0.837
 144   0.4063   0.0664   -0.813
 145   0.4218   0.0673   -0.784
 146   0.4373   0.0679   -0.746
 147   0.4529   0.0684   -0.718
 148   0.4686   0.0686   -0.670
 149   0.4843   0.0687   -0.639
 150   0.5000   0.0686   -0.598
 151   0.5157   0.0683   -0.556
 152   0.5314   0.0679   -0.522
 153   0.5471   0.0673   -0.479
 154   0.5627   0.0666   -0.448
 155   0.5782   0.0658   -0.413
 156   0.5937   0.0648   -0.384
 157   0.6091   0.0638   -0.359
 158   0.6243   0.0627   -0.330
 159   0.6395   0.0615   -0.318
 160   0.6545   0.0602   -0.297
 161   0.6694   0.0589   -0.286
 162   0.6841   0.0575   -0.274
 163   0.6986   0.0561   -0.279
 164   0.7129   0.0546   -0.269
 165   0.7270   0.0531   -0.278
 166   0.7409   0.0515   -0.282
 167   0.7545   0.0498   -0.291
 168   0.7679   0.0482   -0.299
 169   0.7810   0.0465   -0.320
 170   0.7939   0.0448   -0.332
 171   0.8065   0.0430   -0.347
 172   0.8187   0.0412   -0.372
 173   0.8307   0.0393   -0.381
 174   0.8423   0.0375   -0.408
 175   0.8536   0.0356   -0.420
 176   0.8645   0.0337   -0.441
 177   0.8751   0.0317   -0.451
 178   0.8853   0.0298   -0.471
 179   0.8951   0.0278   -0.480
 180   0.9045   0.0258   -0.492
 181   0.9135   0.0239   -0.487
 182   0.9222   0.0219   -0.501
 183   0.9304   0.0200   -0.489
 184   0.9382   0.0181   -0.498
 185   0.9455   0.0162   -0.478
 186   0.9524   0.0144   -0.470
 187   0.9589   0.0126   -0.460
 188   0.9649   0.0109   -0.437
 189   0.9704   0.0093   -0.414
 190   0.9755   0.0078   -0.377
 191   0.9801   0.0064   -0.366
 192   0.9843   0.0051   -0.325
 193   0.9880   0.0040   -0.296
 194   0.9911   0.0029   -0.246
 195   0.9938   0.0021   -0.220
 196   0.9961   0.0013   -0.185
 197   0.9978   0.0008   -0.123
 198   0.9990   0.0003   -0.079
 199   0.9998   0.0001   -0.045

 Maximum panel corner angle = 16.798   at  i,x,y  = 101   0.0002  -0.0016

 Enter corner angle criterion for refinement (deg):   8.399
 Enter type of spline parameter (1=uniform, 2=arclength):   1
 Enter refinement x limits:  -0.10000   1.10000
 Number of points added:           10
 Max thickness =     0.135250  at x =   0.158
 Max camber    =     0.121772  at x =   0.406

 Maximum panel corner angle = 23.874   at  i,x,y  = 103   0.0001  -0.0014

.GDES   c>  
 Buffer airfoil is not identical to current airfoil

 XFOIL   c>  
 Blunt trailing edge.  Gap =  0.00028

 Paneling parameters used...
   Number of panel nodes       160
   Panel bunching parameter    1.000
   TE/LE panel density ratio   0.150
   Refined-area/LE panel density ratio    0.200
   Top    side refined area x/c limits  1.000 1.000
   Bottom side refined area x/c limits  1.000 1.000

 XFOIL   c>  
.OPERi   c>   Current iteration limit:          20

Enter new iteration limit   i>  
Enter new iteration limit   i>  
Enter new iteration limit   i>  
.OPERi   c>  
 M  =    0.0000
 Re =  0.3000E+06

.OPERv   c>  
 Sonic Cp =    -66.86      Sonic Q/Qinf =     9.138


.OPERv   c>  
 Polar  1 newly created for accumulation
 Airfoil archived with polar: 000227                                          

Enter  polar save filename  OR  <return> for no file   s>  
 New polar save file available

Enter  polar dump filename  OR  <return> for no file   s>  
 Polar dump file will NOT be written

 Polar accumulation enabled

.OPERva   c>   Calculating unit vorticity distributions ...
 Calculating wake trajectory ...
 Calculating source influence matrix ...

 Solving BL system ...

 Initializing BL ...
    side            1  ...
 MRCHUE: Inverse mode at  53     Hk =   4.613
 MRCHUE: Inverse mode at  54     Hk =   5.446
 MRCHUE: Inverse mode at  55     Hk =   6.264
 MRCHUE: Inverse mode at  56     Hk =   7.072
 MRCHUE: Inverse mode at  57     Hk =   7.871
 MRCHUE: Inverse mode at  58     Hk =   6.736
 MRCHUE: Inverse mode at  59     Hk =   3.621
 MRCHUE: Inverse mode at  60     Hk =   2.500
 MRCHUE: Inverse mode at  84     Hk =   2.500
 MRCHUE: Inverse mode at  85     Hk =   2.500
 MRCHUE: Convergence failed at  86  side 1    Res =  0.6092E+01
    side            2  ...
 MRCHUE: Inverse mode at  24     Hk =   3.800
 MRCHUE: Inverse mode at  25     Hk =   4.350
 MRCHUE: Inverse mode at  26     Hk =   4.915
 MRCHUE: Inverse mode at  27     Hk =   5.499
 MRCHUE: Inverse mode at  28     Hk =   6.111
 MRCHUE: Inverse mode at  29     Hk =   6.756
 MRCHUE: Inverse mode at  30     Hk =   7.437
 MRCHUE: Inverse mode at  31     Hk =   8.153
 MRCHUE: Inverse mode at  32     Hk =   8.900
 MRCHUE: Inverse mode at  33     Hk =   9.670
 MRCHUE: Inverse mode at  34     Hk =   7.351
 MRCHUE: Inverse mode at  35     Hk =   4.812
 MRCHUE: Inverse mode at  36     Hk =   3.248

 MRCHDU: Convergence failed at  86  side 1    Res =  0.5295E+01
 Side 1  free  transition at x/c =  0.4785   58
 Side 2  free  transition at x/c =  0.1875   34

   1   rms: 0.2998E+00   max: 0.1410E+01   T at   34  2   RLX: 0.425
       a =  2.000      CL =  1.6933
      Cm = -0.2884     CD =  0.01246   =>   CDf =  0.00852    CDp =  0.00394

 Side 1  free  transition at x/c =  0.4972   59
 Side 2  free  transition at x/c =  0.1751   33

   2   rms: 0.1684E+00   max: 0.1084E+01   T at   33  2   RLX: 0.849
       a =  2.000      CL =  1.5992
      Cm = -0.2681     CD =  0.01518   =>   CDf =  0.00829    CDp =  0.00689

 Side 1  free  transition at x/c =  0.5260   60
 Side 2  free  transition at x/c =  0.1573   33

   3   rms: 0.8754E-01   max: 0.4717E+00   T at   33  2
       a =  2.000      CL =  1.5558
      Cm = -0.2586     CD =  0.01687   =>   CDf =  0.00778    CDp =  0.00909

 Side 1  free  transition at x/c =  0.5438   61
 Side 2  free  transition at x/c =  0.1495   32

   4   rms: 0.4521E-01   max: -.2412E+00   D at   84  1
       a =  2.000      CL =  1.5806
      Cm = -0.2634     CD =  0.01716   =>   CDf =  0.00762    CDp =  0.00954

 Side 1  free  transition at x/c =  0.5445   61
 Side 2  free  transition at x/c =  0.1515   32

   5   rms: 0.1001E-01   max: 0.6624E-01   T at   32  2
       a =  2.000      CL =  1.5744
      Cm = -0.2622     CD =  0.01725   =>   CDf =  0.00756    CDp =  0.00968

 Side 1  free  transition at x/c =  0.5440   61
 Side 2  free  transition at x/c =  0.1507   32

   6   rms: 0.4388E-03   max: -.4809E-02   D at   33  2
       a =  2.000      CL =  1.5742
      Cm = -0.2621     CD =  0.01725   =>   CDf =  0.00756    CDp =  0.00969

 Side 1  free  transition at x/c =  0.5440   61
 Side 2  free  transition at x/c =  0.1507   32

   7   rms: 0.2588E-05   max: -.1101E-04   D at   39  2
       a =  2.000      CL =  1.5742
      Cm = -0.2621     CD =  0.01725   =>   CDf =  0.00756    CDp =  0.00969

 Point added to stored polar  1
 Point written to save file  000227M0.1.log                                  
 Dump file unspecified or not available
 Calculating wake trajectory ...
 Calculating source influence matrix ...

 Solving BL system ...

 Side 1  free  transition at x/c =  0.5440   61
 Side 2  free  transition at x/c =  0.1507   32

   1   rms: 0.1968E+00   max: -.2060E+01   T at   32  2   RLX: 0.243
       a =  3.000      CL =  1.5989
      Cm = -0.2617     CD =  0.01759   =>   CDf =  0.00737    CDp =  0.01021

 Side 1  free  transition at x/c =  0.5370   61
 Side 2  free  transition at x/c =  0.1622   32

   2   rms: 0.2575E+00   max: -.3759E+01   D at    2  1   RLX: 0.133
       a =  3.000      CL =  1.6057
      Cm = -0.2614     CD =  0.01715   =>   CDf =  0.00754    CDp =  0.00962

 Side 1  free  transition at x/c =  0.5328   61
 Side 2  free  transition at x/c =  0.1648   32

   3   rms: 0.1071E+00   max: 0.7679E+00   D at   32  2   RLX: 0.844
       a =  3.000      CL =  1.6536
      Cm = -0.2586     CD =  0.01804   =>   CDf =  0.00753    CDp =  0.01051

 Side 1  free  transition at x/c =  0.5129   60
 Side 2  free  transition at x/c =  0.1814   34

   4   rms: 0.1941E-01   max: -.2240E+00   D at   60  1
       a =  3.000      CL =  1.6551
      Cm = -0.2568     CD =  0.01831   =>   CDf =  0.00772    CDp =  0.01059

 Side 1  free  transition at x/c =  0.5101   60
 Side 2  free  transition at x/c =  0.1811   33

   5   rms: 0.3948E-02   max: -.2448E-01   D at   33  2
       a =  3.000      CL =  1.6582
      Cm = -0.2574     CD =  0.01835   =>   CDf =  0.00766    CDp =  0.01068

 Side 1  free  transition at x/c =  0.5098   60
 Side 2  free  transition at x/c =  0.1815   34

   6   rms: 0.2361E-02   max: -.2243E-01   D at   33  2
       a =  3.000      CL =  1.6583
      Cm = -0.2574     CD =  0.01835   =>   CDf =  0.00768    CDp =  0.01067

 Side 1  free  transition at x/c =  0.5098   60
 Side 2  free  transition at x/c =  0.1815   34

   7   rms: 0.7286E-04   max: 0.5672E-03   D at   34  2
       a =  3.000      CL =  1.6583
      Cm = -0.2574     CD =  0.01835   =>   CDf =  0.00767    CDp =  0.01067

 Point added to stored polar  1
 Point written to save file  000227M0.1.log                                  
 Dump file unspecified or not available
 Calculating wake trajectory ...
 Calculating source influence matrix ...

 Solving BL system ...

 Side 1  free  transition at x/c =  0.5098   60
 Side 2  free  transition at x/c =  0.1815   34

   1   rms: 0.3208E+00   max: -.2367E+01   T at   34  2   RLX: 0.211
       a =  4.000      CL =  1.6771
      Cm = -0.2569     CD =  0.01837   =>   CDf =  0.00746    CDp =  0.01091

 Side 1  free  transition at x/c =  0.5033   60
 Side 2  free  transition at x/c =  0.1929   33

   2   rms: 0.2326E+00   max: -.3388E+01   T at    2  1   RLX: 0.148
       a =  4.000      CL =  1.6822
      Cm = -0.2556     CD =  0.01895   =>   CDf =  0.00772    CDp =  0.01123

 Side 1  free  transition at x/c =  0.4991   60
 Side 2  free  transition at x/c =  0.1961   33

   3   rms: 0.1049E+00   max: -.9218E+00   T at   33  2   RLX: 0.542
       a =  4.000      CL =  1.7067
      Cm = -0.2526     CD =  0.01951   =>   CDf =  0.00771    CDp =  0.01180

 MRCHDU: Convergence failed at  35  side 2    Res =  0.2676E+01
 MRCHDU: Convergence failed at  36  side 2    Res =  0.6841E+01
 MRCHDU: Convergence failed at  37  side 2    Res =  0.3084E+01
 MRCHDU: Convergence failed at  38  side 2    Res =  0.6050E+01
 MRCHDU: Convergence failed at  39  side 2    Res =  0.9653E+01
 MRCHDU: Convergence failed at  40  side 2    Res =  0.1373E+02
 MRCHDU: Convergence failed at  41  side 2    Res =  0.1734E+02
 MRCHDU: Convergence failed at  42  side 2    Res =  0.1954E+02
 MRCHDU: Convergence failed at  43  side 2    Res =  0.1994E+02
 MRCHDU: Convergence failed at  44  side 2    Res =  0.1894E+02
 MRCHDU: Convergence failed at  45  side 2    Res =  0.1705E+02
 MRCHDU: Convergence failed at  46  side 2    Res =  0.1473E+02
 MRCHDU: Convergence failed at  47  side 2    Res =  0.1234E+02
 MRCHDU: Convergence failed at  48  side 2    Res =  0.1004E+02
 MRCHDU: Convergence failed at  49  side 2    Res =  0.8025E+01
 MRCHDU: Convergence failed at  50  side 2    Res =  0.6292E+01
 MRCHDU: Convergence failed at  51  side 2    Res =  0.5019E+01
 MRCHDU: Convergence failed at  52  side 2    Res =  0.4005E+01
 MRCHDU: Convergence failed at  53  side 2    Res =  0.3229E+01
 MRCHDU: Convergence failed at  54  side 2    Res =  0.7638E+01
 MRCHDU: Convergence failed at  55  side 2    Res =  0.7286E+01
 MRCHDU: Convergence failed at  56  side 2    Res =  0.7682E+01
 MRCHDU: Convergence failed at  57  side 2    Res =  0.8404E+01
 MRCHDU: Convergence failed at  58  side 2    Res =  0.9676E+01
 MRCHDU: Convergence failed at  59  side 2    Res =  0.1674E+02
 MRCHDU: Convergence failed at  60  side 2    Res =  0.3982E+02
 Side 1  free  transition at x/c =  0.4853   60
 Side 2  free  transition at x/c =  0.2109   34

   4   rms: 0.1935E+00   max: -.1010E+01   D at   61  2   RLX: 0.495
       a =  4.000      CL =  1.6977
      Cm = -0.2485     CD =  0.01942   =>   CDf =  0.00662    CDp =  0.01279

 MRCHDU: Convergence failed at  40  side 2    Res =  0.3867E-01
 Side 1  free  transition at x/c =  0.4814   59
 Side 2  free  transition at x/c =  0.2042   34

   5   rms: 0.1532E+00   max: -.9620E+00   D at   44  2   RLX: 0.520
       a =  4.000      CL =  1.7231
      Cm = -0.2507     CD =  0.02078   =>   CDf =  0.00780    CDp =  0.01298

 Side 1  free  transition at x/c =  0.4790   59
 Side 2  free  transition at x/c =  0.2117   34

   6   rms: 0.2349E+00   max: -.1364E+01   D at   44  2   RLX: 0.366
       a =  4.000      CL =  1.7285
      Cm = -0.2511     CD =  0.02045   =>   CDf =  0.00770    CDp =  0.01274

 MRCHDU: Convergence failed at  36  side 2    Res =  0.5892E+01
 MRCHDU: Convergence failed at  37  side 2    Res =  0.6676E+01
 MRCHDU: Convergence failed at  38  side 2    Res =  0.1502E+02
 MRCHDU: Convergence failed at  39  side 2    Res =  0.2945E+02
 MRCHDU: Convergence failed at  42  side 2    Res =  0.5530E+00
 MRCHDU: Convergence failed at  43  side 2    Res =  0.8034E+01
 MRCHDU: Convergence failed at  44  side 2    Res =  0.7971E+01
 MRCHDU: Convergence failed at  45  side 2    Res =  0.9344E+01
 MRCHDU: Convergence failed at  46  side 2    Res =  0.2114E+01
 Side 1  free  transition at x/c =  0.4782   59
 Side 2  free  transition at x/c =  0.2283   35

   7   rms: 0.1420E+00   max: 0.1366E+01   D at   40  2   RLX: 0.983
       a =  4.000      CL =  1.7337
      Cm = -0.2521     CD =  0.01978   =>   CDf =  0.00789    CDp =  0.01188

 Side 1  free  transition at x/c =  0.4765   59
 Side 2  free  transition at x/c =  0.2093   34

   8   rms: 0.7552E-01   max: -.7987E+00   D at   37  2   RLX: 0.626
       a =  4.000      CL =  1.7321
      Cm = -0.2513     CD =  0.02027   =>   CDf =  0.00789    CDp =  0.01238

 Side 1  free  transition at x/c =  0.4767   59
 Side 2  free  transition at x/c =  0.2146   35

   9   rms: 0.5250E-01   max: -.6083E+00   D at   37  2   RLX: 0.822
       a =  4.000      CL =  1.7323
      Cm = -0.2514     CD =  0.01995   =>   CDf =  0.00775    CDp =  0.01220

 Side 1  free  transition at x/c =  0.4767   59
 Side 2  free  transition at x/c =  0.2188   35

  10   rms: 0.1272E-01   max: -.2860E+00   D at   37  2
       a =  4.000      CL =  1.7317
      Cm = -0.2513     CD =  0.01997   =>   CDf =  0.00771    CDp =  0.01226

 Side 1  free  transition at x/c =  0.4767   59
 Side 2  free  transition at x/c =  0.2175   35

  11   rms: 0.2843E-02   max: -.6570E-01   D at   37  2
       a =  4.000      CL =  1.7316
      Cm = -0.2513     CD =  0.01998   =>   CDf =  0.00772    CDp =  0.01226

 Side 1  free  transition at x/c =  0.4767   59
 Side 2  free  transition at x/c =  0.2172   35

  12   rms: 0.1400E-03   max: -.3151E-02   D at   37  2
       a =  4.000      CL =  1.7316
      Cm = -0.2513     CD =  0.01998   =>   CDf =  0.00772    CDp =  0.01225

 Side 1  free  transition at x/c =  0.4767   59
 Side 2  free  transition at x/c =  0.2172   35

  13   rms: 0.7720E-06   max: -.5072E-05   D at   37  2
       a =  4.000      CL =  1.7316
      Cm = -0.2513     CD =  0.01998   =>   CDf =  0.00772    CDp =  0.01225

 Point added to stored polar  1
 Point written to save file  000227M0.1.log                                  
 Dump file unspecified or not available
 Calculating wake trajectory ...
 Calculating source influence matrix ...

 Solving BL system ...

 Side 1  free  transition at x/c =  0.4767   59
 Side 2  free  transition at x/c =  0.2172   35

   1   rms: 0.1744E+00   max: -.1663E+01   T at   35  2   RLX: 0.301
       a =  5.000      CL =  1.7530
      Cm = -0.2496     CD =  0.02053   =>   CDf =  0.00774    CDp =  0.01279

 Side 1  free  transition at x/c =  0.4661   59
 Side 2  free  transition at x/c =  0.2284   35

   2   rms: 0.1269E+00   max: -.1257E+01   T at   35  2   RLX: 0.398
       a =  5.000      CL =  1.7749
      Cm = -0.2480     CD =  0.02163   =>   CDf =  0.00762    CDp =  0.01401

 Side 1  free  transition at x/c =  0.4582   59
 Side 2  free  transition at x/c =  0.2454   35

   3   rms: 0.6987E-01   max: 0.6546E+00   D at   35  2
       a =  5.000      CL =  1.7984
      Cm = -0.2447     CD =  0.02211   =>   CDf =  0.00775    CDp =  0.01435

 Side 1  free  transition at x/c =  0.4441   58
 Side 2  free  transition at x/c =  0.2619   36

   4   rms: 0.1246E-01   max: 0.1619E+00   D at   36  2
       a =  5.000      CL =  1.7994
      Cm = -0.2450     CD =  0.02231   =>   CDf =  0.00782    CDp =  0.01449

 Side 1  free  transition at x/c =  0.4451   58
 Side 2  free  transition at x/c =  0.2631   36

   5   rms: 0.8806E-03   max: -.4518E-02   T at   36  2
       a =  5.000      CL =  1.8000
      Cm = -0.2451     CD =  0.02230   =>   CDf =  0.00778    CDp =  0.01452

 Side 1  free  transition at x/c =  0.4449   58
 Side 2  free  transition at x/c =  0.2633   36

   6   rms: 0.3485E-05   max: 0.4575E-04   D at   37  2
       a =  5.000      CL =  1.8000
      Cm = -0.2451     CD =  0.02230   =>   CDf =  0.00778    CDp =  0.01452

 Point added to stored polar  1
 Point written to save file  000227M0.1.log                                  
 Dump file unspecified or not available
 Calculating wake trajectory ...
 Calculating source influence matrix ...

 Solving BL system ...

 Side 1  free  transition at x/c =  0.4449   58
 Side 2  free  transition at x/c =  0.2633   36

   1   rms: 0.1552E+00   max: -.1285E+01   T at   36  2   RLX: 0.389
       a =  6.000      CL =  1.8261
      Cm = -0.2427     CD =  0.02321   =>   CDf =  0.00780    CDp =  0.01541

 MRCHDU: Convergence failed at  38  side 2    Res =  0.5127E+01
 MRCHDU: Convergence failed at  39  side 2    Res =  0.3224E+01
 MRCHDU: Convergence failed at  40  side 2    Res =  0.7179E+01
 MRCHDU: Convergence failed at  41  side 2    Res =  0.2828E+02
 MRCHDU: Convergence failed at  42  side 2    Res =  0.1924E+03
 MRCHDU: Convergence failed at  43  side 2    Res =  0.8439E+02
 MRCHDU: Convergence failed at  44  side 2    Res =  0.6552E+03
 MRCHDU: Convergence failed at  45  side 2    Res =  0.3066E+02
 MRCHDU: Convergence failed at  46  side 2    Res =  0.1314E+02
 MRCHDU: Convergence failed at  47  side 2    Res =  0.6850E+01
 MRCHDU: Convergence failed at  48  side 2    Res =  0.3492E+01
 Side 1  free  transition at x/c =  0.4308   58
 Side 2  free  transition at x/c =  0.2898   38

   2   rms: 0.1911E+00   max: -.1302E+01   D at   46  2   RLX: 0.384
       a =  6.000      CL =  1.8353
      Cm = -0.2406     CD =  0.02396   =>   CDf =  0.00733    CDp =  0.01664

 Side 1  free  transition at x/c =  0.4254   57
 Side 2  free  transition at x/c =  0.3158   39

   3   rms: 0.6990E-01   max: -.6334E+00   D at   40  2   RLX: 0.789
       a =  6.000      CL =  1.8571
      Cm = -0.2391     CD =  0.02498   =>   CDf =  0.00763    CDp =  0.01735

 Side 1  free  transition at x/c =  0.4158   58
 Side 2  free  transition at x/c =  0.3396   39

   4   rms: 0.2058E-01   max: -.2417E+00   D at   39  2
       a =  6.000      CL =  1.8638
      Cm = -0.2391     CD =  0.02523   =>   CDf =  0.00772    CDp =  0.01751

 Side 1  free  transition at x/c =  0.4142   58
 Side 2  free  transition at x/c =  0.3519   40

   5   rms: 0.8193E-02   max: 0.1154E+00   C at   40  2
       a =  6.000      CL =  1.8643
      Cm = -0.2392     CD =  0.02522   =>   CDf =  0.00763    CDp =  0.01759

 Side 1  free  transition at x/c =  0.4142   58
 Side 2  free  transition at x/c =  0.3491   40

   6   rms: 0.1269E-02   max: 0.2220E-01   C at   40  2
       a =  6.000      CL =  1.8643
      Cm = -0.2392     CD =  0.02522   =>   CDf =  0.00763    CDp =  0.01759

 Side 1  free  transition at x/c =  0.4142   58
 Side 2  free  transition at x/c =  0.3485   40

   7   rms: 0.8067E-05   max: -.1541E-03   D at   42  2
       a =  6.000      CL =  1.8643
      Cm = -0.2392     CD =  0.02522   =>   CDf =  0.00763    CDp =  0.01759

 Point added to stored polar  1
 Point written to save file  000227M0.1.log                                  
 Dump file unspecified or not available
 Calculating wake trajectory ...
 Calculating source influence matrix ...

 Solving BL system ...

 Side 1  free  transition at x/c =  0.4142   58
 Side 2  free  transition at x/c =  0.3485   40

   1   rms: 0.2655E+00   max: -.3745E+01   C at   40  2   RLX: 0.134
       a =  7.000      CL =  1.8724
      Cm = -0.2385     CD =  0.02568   =>   CDf =  0.00765    CDp =  0.01803

 Side 1  free  transition at x/c =  0.4104   58
 Side 2  free  transition at x/c =  0.3709   41

   2   rms: 0.3327E+00   max: -.5716E+01   C at   41  2   RLX: 0.087
       a =  7.000      CL =  1.8782
      Cm = -0.2382     CD =  0.02598   =>   CDf =  0.00767    CDp =  0.01831

 Side 1  free  transition at x/c =  0.4084   57
 Side 2  free  transition at x/c =  0.3865   42

   3   rms: 0.4714E+00   max: -.8607E+01   C at   42  2   RLX: 0.058
       a =  7.000      CL =  1.8822
      Cm = -0.2382     CD =  0.02612   =>   CDf =  0.00768    CDp =  0.01844

 Side 1  free  transition at x/c =  0.4072   57
 Side 2  free  transition at x/c =  0.3965   42

   4   rms: 0.1698E+00   max: -.1791E+01   T at   42  2   RLX: 0.279
       a =  7.000      CL =  1.8957
      Cm = -0.2371     CD =  0.02679   =>   CDf =  0.00767    CDp =  0.01911

 Side 1  free  transition at x/c =  0.4005   57
 Side 2 forced transition at x/c =  1.0001   73

   5   rms: 0.1056E+00   max: -.4365E+00   D at   41  2
       a =  7.000      CL =  1.9187
      Cm = -0.2321     CD =  0.02831   =>   CDf =  0.00708    CDp =  0.02123

 Side 1  free  transition at x/c =  0.3861   56
 Side 2 forced transition at x/c =  1.0001   73

   6   rms: 0.1758E-01   max: -.9320E-01   D at   56  1
       a =  7.000      CL =  1.9158
      Cm = -0.2317     CD =  0.02846   =>   CDf =  0.00725    CDp =  0.02122

 Side 1  free  transition at x/c =  0.3869   56
 Side 2 forced transition at x/c =  1.0001   73

   7   rms: 0.2424E-02   max: 0.1231E-01   D at   36  2
       a =  7.000      CL =  1.9169
      Cm = -0.2319     CD =  0.02841   =>   CDf =  0.00716    CDp =  0.02125

 Side 1  free  transition at x/c =  0.3867   56
 Side 2 forced transition at x/c =  1.0001   73

   8   rms: 0.4261E-04   max: 0.2633E-03   D at   36  2
       a =  7.000      CL =  1.9169
      Cm = -0.2319     CD =  0.02841   =>   CDf =  0.00717    CDp =  0.02125

 Point added to stored polar  1
 Point written to save file  000227M0.1.log                                  
 Dump file unspecified or not available
 Calculating wake trajectory ...
 Calculating source influence matrix ...

 Solving BL system ...

 Side 1  free  transition at x/c =  0.3867   56
 Side 2 forced transition at x/c =  1.0001   73

   1   rms: 0.1429E+00   max: -.2740E+00   n at   59  2   RLX: 0.916
       a =  8.000      CL =  1.9671
      Cm = -0.2262     CD =  0.03211   =>   CDf =  0.00686    CDp =  0.02525

 Side 1  free  transition at x/c =  0.3619   56
 Side 2 forced transition at x/c =  1.0001   72

   2   rms: 0.2502E-01   max: -.2802E+00   D at   56  1
       a =  8.000      CL =  1.9588
      Cm = -0.2242     CD =  0.03323   =>   CDf =  0.00733    CDp =  0.02590

 Side 1  free  transition at x/c =  0.3619   56
 Side 2 forced transition at x/c =  1.0001   72

   3   rms: 0.7523E-02   max: -.3901E-01   D at   81  1
       a =  8.000      CL =  1.9648
      Cm = -0.2249     CD =  0.03293   =>   CDf =  0.00716    CDp =  0.02576

 Side 1  free  transition at x/c =  0.3608   56
 Side 2 forced transition at x/c =  1.0001   72

   4   rms: 0.1141E-03   max: 0.2024E-02   D at   80  1
       a =  8.000      CL =  1.9647
      Cm = -0.2249     CD =  0.03295   =>   CDf =  0.00720    CDp =  0.02575

 Side 1  free  transition at x/c =  0.3608   56
 Side 2 forced transition at x/c =  1.0001   72

   5   rms: 0.3093E-05   max: -.3425E-04   C at   72  2
       a =  8.000      CL =  1.9647
      Cm = -0.2249     CD =  0.03295   =>   CDf =  0.00720    CDp =  0.02575

 Point added to stored polar  1
 Point written to save file  000227M0.1.log                                  
 Dump file unspecified or not available
 Calculating wake trajectory ...
 Calculating source influence matrix ...

 Solving BL system ...

 Side 1  free  transition at x/c =  0.3608   56
 Side 2 forced transition at x/c =  1.0001   72

   1   rms: 0.1301E+00   max: 0.2589E+00   D at   85  2   RLX: 0.798
       a =  9.000      CL =  2.0003
      Cm = -0.2195     CD =  0.03706   =>   CDf =  0.00687    CDp =  0.03019

 Side 1  free  transition at x/c =  0.3433   56
 Side 2 forced transition at x/c =  1.0001   71

   2   rms: 0.3075E-01   max: -.2783E+00   D at   56  1
       a =  9.000      CL =  2.0020
      Cm = -0.2177     CD =  0.03854   =>   CDf =  0.00726    CDp =  0.03128

 Side 1  free  transition at x/c =  0.3375   56
 Side 2 forced transition at x/c =  1.0001   71

   3   rms: 0.6592E-02   max: -.4401E-01   D at   81  1
       a =  9.000      CL =  2.0051
      Cm = -0.2179     CD =  0.03833   =>   CDf =  0.00724    CDp =  0.03109

 Side 1  free  transition at x/c =  0.3374   56
 Side 2 forced transition at x/c =  1.0001   71

   4   rms: 0.3912E-03   max: -.2536E-02   D at   82  2
       a =  9.000      CL =  2.0054
      Cm = -0.2179     CD =  0.03835   =>   CDf =  0.00725    CDp =  0.03109

 Side 1  free  transition at x/c =  0.3374   56
 Side 2 forced transition at x/c =  1.0001   71

   5   rms: 0.7824E-05   max: 0.9058E-04   C at   71  2
       a =  9.000      CL =  2.0054
      Cm = -0.2179     CD =  0.03835   =>   CDf =  0.00725    CDp =  0.03109

 Point added to stored polar  1
 Point written to save file  000227M0.1.log                                  
 Dump file unspecified or not available
 Calculating wake trajectory ...
 Calculating source influence matrix ...

 Solving BL system ...

 Side 1  free  transition at x/c =  0.3374   56
 Side 2 forced transition at x/c =  1.0001   71

   1   rms: 0.1272E+00   max: 0.2626E+00   D at   85  2   RLX: 0.707
       a = 10.000      CL =  2.0345
      Cm = -0.2133     CD =  0.04250   =>   CDf =  0.00690    CDp =  0.03560

 Side 1  free  transition at x/c =  0.3232   56
 Side 2 forced transition at x/c =  1.0001   70

   2   rms: 0.4433E-01   max: -.3655E+00   D at   56  1
       a = 10.000      CL =  2.0362
      Cm = -0.2112     CD =  0.04495   =>   CDf =  0.00722    CDp =  0.03774

 Side 1  free  transition at x/c =  0.3169   56
 Side 2 forced transition at x/c =  1.0001   70

   3   rms: 0.1409E-01   max: -.9464E-01   D at   80  1
       a = 10.000      CL =  2.0436
      Cm = -0.2115     CD =  0.04422   =>   CDf =  0.00723    CDp =  0.03700

 Side 1  free  transition at x/c =  0.3158   55
 Side 2 forced transition at x/c =  1.0001   70

   4   rms: 0.2464E-02   max: -.3003E-01   C at   55  1
       a = 10.000      CL =  2.0431
      Cm = -0.2116     CD =  0.04443   =>   CDf =  0.00727    CDp =  0.03717

 Side 1  free  transition at x/c =  0.3158   55
 Side 2 forced transition at x/c =  1.0001   70

   5   rms: 0.1790E-03   max: -.1025E-02   D at   80  1
       a = 10.000      CL =  2.0433
      Cm = -0.2116     CD =  0.04441   =>   CDf =  0.00725    CDp =  0.03717

 Side 1  free  transition at x/c =  0.3158   55
 Side 2 forced transition at x/c =  1.0001   70

   6   rms: 0.9862E-05   max: 0.9030E-04   C at   70  2
       a = 10.000      CL =  2.0433
      Cm = -0.2116     CD =  0.04441   =>   CDf =  0.00725    CDp =  0.03717

 Point added to stored polar  1
 Point written to save file  000227M0.1.log                                  
 Dump file unspecified or not available
 Calculating wake trajectory ...
 Calculating source influence matrix ...

 Solving BL system ...

 Side 1  free  transition at x/c =  0.3158   55
 Side 2 forced transition at x/c =  1.0001   70

   1   rms: 0.1211E+00   max: 0.2340E+00   D at   85  2   RLX: 0.632
       a = 11.000      CL =  2.0659
      Cm = -0.2083     CD =  0.04895   =>   CDf =  0.00688    CDp =  0.04207

 Side 1  free  transition at x/c =  0.3019   56
 Side 2 forced transition at x/c =  1.0001   69

   2   rms: 0.4710E-01   max: 0.3519E+00   D at    2  1
       a = 11.000      CL =  2.0771
      Cm = -0.2058     CD =  0.05133   =>   CDf =  0.00720    CDp =  0.04413

 Side 1  free  transition at x/c =  0.2973   55
 Side 2 forced transition at x/c =  1.0001   69

   3   rms: 0.5299E-02   max: -.5070E-01   C at   55  1
       a = 11.000      CL =  2.0757
      Cm = -0.2059     CD =  0.05143   =>   CDf =  0.00714    CDp =  0.04429

 Side 1  free  transition at x/c =  0.2964   55
 Side 2 forced transition at x/c =  1.0001   69

   4   rms: 0.7395E-03   max: -.4749E-02   D at   79  1
       a = 11.000      CL =  2.0762
      Cm = -0.2059     CD =  0.05136   =>   CDf =  0.00710    CDp =  0.04426

 Side 1  free  transition at x/c =  0.2963   55
 Side 2 forced transition at x/c =  1.0001   69

   5   rms: 0.3860E-04   max: -.3202E-03   D at   82  2
       a = 11.000      CL =  2.0762
      Cm = -0.2059     CD =  0.05136   =>   CDf =  0.00711    CDp =  0.04426

 Point added to stored polar  1
 Point written to save file  000227M0.1.log                                  
 Dump file unspecified or not available
 Calculating wake trajectory ...
 Calculating source influence matrix ...

 Solving BL system ...

 Side 1  free  transition at x/c =  0.2963   55
 Side 2 forced transition at x/c =  1.0001   69

   1   rms: 0.1178E+00   max: 0.3985E+00   T at   55  1   RLX: 0.570
       a = 12.000      CL =  2.0953
      Cm = -0.2033     CD =  0.05589   =>   CDf =  0.00713    CDp =  0.04876

 Side 1  free  transition at x/c =  0.2835   55
 Side 2 forced transition at x/c =  1.0001   69

   2   rms: 0.5127E-01   max: -.3907E+00   D at   55  1
       a = 12.000      CL =  2.1039
      Cm = -0.2005     CD =  0.05923   =>   CDf =  0.00670    CDp =  0.05253

 Side 1  free  transition at x/c =  0.2744   55
 Side 2 forced transition at x/c =  1.0001   68

   3   rms: 0.2093E-01   max: -.1821E+00   D at   55  1
       a = 12.000      CL =  2.0928
      Cm = -0.2004     CD =  0.06060   =>   CDf =  0.00702    CDp =  0.05358

 Side 1  free  transition at x/c =  0.2755   55
 Side 2 forced transition at x/c =  1.0001   68

   4   rms: 0.4167E-02   max: -.2446E-01   D at   78  1
       a = 12.000      CL =  2.0958
      Cm = -0.2005     CD =  0.06015   =>   CDf =  0.00691    CDp =  0.05325

 Side 1  free  transition at x/c =  0.2749   55
 Side 2 forced transition at x/c =  1.0001   68

   5   rms: 0.2562E-03   max: -.1732E-02   D at   82  2
       a = 12.000      CL =  2.0960
      Cm = -0.2005     CD =  0.06018   =>   CDf =  0.00692    CDp =  0.05326

 Side 1  free  transition at x/c =  0.2749   55
 Side 2 forced transition at x/c =  1.0001   68

   6   rms: 0.1118E-04   max: 0.7845E-04   C at   68  2
       a = 12.000      CL =  2.0960
      Cm = -0.2005     CD =  0.06018   =>   CDf =  0.00692    CDp =  0.05326

 Point added to stored polar  1
 Point written to save file  000227M0.1.log                                  
 Dump file unspecified or not available
 Calculating wake trajectory ...
 Calculating source influence matrix ...

 Solving BL system ...

 Side 1  free  transition at x/c =  0.2749   55
 Side 2 forced transition at x/c =  1.0001   68

   1   rms: 0.1247E+00   max: 0.4397E+00   D at   76  1   RLX: 0.502
       a = 13.000      CL =  2.1014
      Cm = -0.1984     CD =  0.06591   =>   CDf =  0.00695    CDp =  0.05897

 Side 1  free  transition at x/c =  0.2632   54
 Side 2 forced transition at x/c =  1.0001   68

   2   rms: 0.5636E-01   max: -.2630E+00   C at   54  1
       a = 13.000      CL =  2.1078
      Cm = -0.1962     CD =  0.07102   =>   CDf =  0.00653    CDp =  0.06449

 Side 1  free  transition at x/c =  0.2532   55
 Side 2 forced transition at x/c =  1.0001   67

   3   rms: 0.5928E-02   max: -.5101E-01   D at   55  1
       a = 13.000      CL =  2.1054
      Cm = -0.1957     CD =  0.07053   =>   CDf =  0.00680    CDp =  0.06373

 Side 1  free  transition at x/c =  0.2538   55
 Side 2 forced transition at x/c =  1.0001   67

   4   rms: 0.1025E-02   max: -.7867E-02   D at    4  1
       a = 13.000      CL =  2.1061
      Cm = -0.1958     CD =  0.07051   =>   CDf =  0.00677    CDp =  0.06374

 Side 1  free  transition at x/c =  0.2538   55
 Side 2 forced transition at x/c =  1.0001   67

   5   rms: 0.4762E-04   max: -.3139E-03   D at   81  2
       a = 13.000      CL =  2.1061
      Cm = -0.1958     CD =  0.07052   =>   CDf =  0.00677    CDp =  0.06374

 Point added to stored polar  1
 Point written to save file  000227M0.1.log                                  
 Dump file unspecified or not available
 Calculating wake trajectory ...
 Calculating source influence matrix ...

 Solving BL system ...

 Side 1  free  transition at x/c =  0.2538   55
 Side 2 forced transition at x/c =  1.00Got result {'DD': 0.01705, 'Dmin': 0.01725, 'LL': -1.5684}
Completed successfully in 2.77 seconds. [{'DD': 0.01705, 'Dmin': 0.01725, 'LL': -1.5684}]
01   67

   1   rms: 0.1173E+00   max: 0.4165E+00   D at   75  1   RLX: 0.454
       a = 14.000      CL =  2.1100
      Cm = -0.1941     CD =  0.07605   =>   CDf =  0.00680    CDp =  0.06925

 Side 1  free  transition at x/c =  0.2441   54
 Side 2 forced transition at x/c =  1.0001   67

   2   rms: 0.6536E-01   max: -.2689E+00   C at   54  1
       a = 14.000      CL =  2.1094
      Cm = -0.1927     CD =  0.08361   =>   CDf =  0.00632    CDp =  0.07729

 Side 1  free  transition at x/c =  0.2341   55
 Side 2 forced transition at x/c =  1.0001   66

   3   rms: 0.6885E-02   max: -.6045E-01   D at   77  1
       a = 14.000      CL =  2.1081
      Cm = -0.1920     CD =  0.08213   =>   CDf =  0.00663    CDp =  0.07550

 Side 1  free  transition at x/c =  0.2339   55
 Side 2 forced transition at x/c =  1.0001   66

   4   rms: 0.9569E-03   max: -.8791E-02   D at    4  1
       a = 14.000      CL =  2.1086
      Cm = -0.1920     CD =  0.08225   =>   CDf =  0.00664    CDp =  0.07561

 Side 1  free  transition at x/c =  0.2339   55
 Side 2 forced transition at x/c =  1.0001   66

   5   rms: 0.1707E-04   max: -.1568E-03   D at   81  2
       a = 14.000      CL =  2.1087
      Cm = -0.1920     CD =  0.08225   =>   CDf =  0.00664    CDp =  0.07561

 Point added to stored polar  1
 Point written to save file  000227M0.1.log                                  
 Dump file unspecified or not available
 Calculating wake trajectory ...
 Calculating source influence matrix ...

 Solving BL system ...

 Side 1  free  transition at x/c =  0.2339   55
 Side 2 forced transition at x/c =  1.0001   66

   1   rms: 0.1145E+00   max: 0.4093E+00   D at   73  1   RLX: 0.410
       a = 15.000      CL =  2.1102
      Cm = -0.1907     CD =  0.08761   =>   CDf =  0.00666    CDp =  0.08095

 Side 1  free  transition at x/c =  0.2244   54
 Side 2 forced transition at x/c =  1.0001   66

   2   rms: 0.7454E-01   max: -.4212E+00   D at   54  1
       a = 15.000      CL =  2.1035
      Cm = -0.1906     CD =  0.09762   =>   CDf =  0.00658    CDp =  0.09104

 Side 1  free  transition at x/c =  0.2135   53
 Side 2 forced transition at x/c =  1.0001   66

   3   rms: 0.1040E-01   max: -.7614E-01   D at   75  1
       a = 15.000      CL =  2.0997
      Cm = -0.1897     CD =  0.09588   =>   CDf =  0.00641    CDp =  0.08947

 Side 1  free  transition at x/c =  0.2129   53
 Side 2 forced transition at x/c =  1.0001   66

   4   rms: 0.1725E-02   max: -.7535E-02   D at   81  2
       a = 15.000      CL =  2.1013
      Cm = -0.1898     CD =  0.09593   =>   CDf =  0.00637    CDp =  0.08956

 Side 1  free  transition at x/c =  0.2126   53
 Side 2 forced transition at x/c =  1.0001   66

   5   rms: 0.1286E-03   max: -.8177E-03   D at   82  2
       a = 15.000      CL =  2.1013
      Cm = -0.1898     CD =  0.09596   =>   CDf =  0.00638    CDp =  0.08958

 Side 1  free  transition at x/c =  0.2126   53
 Side 2 forced transition at x/c =  1.0001   66

   6   rms: 0.5038E-05   max: -.4066E-04   D at   82  2
       a = 15.000      CL =  2.1013
      Cm = -0.1898     CD =  0.09596   =>   CDf =  0.00638    CDp =  0.08958

 Point added to stored polar  1
 Point written to save file  000227M0.1.log                                  
 Dump file unspecified or not available

.OPERva   c>  
 XFOIL   c>  
