Job launching after 0.31 seconds in submission.
Running python job.
Changed into dir /home/simonx/Documents/Udacity/Projects/capstone/PESM_NSGA2_CST_XFoil
Importing evaluationFunctionXFoil.py
Running evaluationFunctionXFoil.main()
0
1
2
0.04
resp: 
 ===================================================
  XFOIL Version 6.97
  Copyright (C) 2000   Mark Drela, Harold Youngren

  This software comes with ABSOLUTELY NO WARRANTY,
    subject to the GNU General Public License.

  Caveat computor
 ===================================================

 File  xfoil.def  not found

   QUIT    Exit program

  .OPER    Direct operating point(s)
  .MDES    Complex mapping design routine
  .QDES    Surface speed design routine
  .GDES    Geometry design routine

   SAVE f  Write airfoil to labeled coordinate file
   PSAV f  Write airfoil to plain coordinate file
   ISAV f  Write airfoil to ISES coordinate file
   MSAV f  Write airfoil to MSES coordinate file
   REVE    Reverse written-airfoil node ordering
   DELI i  Change written-airfoil file delimiters

   LOAD f  Read buffer airfoil from coordinate file
   NACA i  Set NACA 4,5-digit airfoil and buffer airfoil
   INTE    Set buffer airfoil by interpolating two airfoils
   NORM    Buffer airfoil normalization toggle
   HALF    Halve the number of points in buffer airfoil
   XYCM rr Change CM reference location, currently  0.25000 0.00000

   BEND    Display structural properties of current airfoil

   PCOP    Set current-airfoil panel nodes directly from buffer airfoil points
   PANE    Set current-airfoil panel nodes ( 160 ) based on curvature
  .PPAR    Show/change paneling

  .PLOP    Plotting options

   WDEF f  Write  current-settings file
   RDEF f  Reread current-settings file
   NAME s  Specify new airfoil name
   NINC    Increment name version number

   Z       Zoom    | (available in all menus)
   U       Unzoom  | 

 XFOIL   c>   ...............................................

  G raphics-enable flag:        T
  S ize of plot object          10.00"
  A spect ratio of plot object   0.5500
  P age dimensions              11.00 x  8.50"
  M argins from page edges       0.00",  0.00"
  F ont size (relative)          0.0150
  W indow/screen size fraction   0.8000
  B lowup input method:        Cursor    
  O rientation of plot:        Landscape 
  C olor PostScript output?     F

      Option, Value   (or <Return>)    c>   ...............................................

  G raphics-enable flag:        F
  S ize of plot object          10.00"
  A spect ratio of plot object   0.5500
  P age dimensions              11.00 x  8.50"
  M argins from page edges       0.00",  0.00"
  F ont size (relative)          0.0150
  W indow/screen size fraction   0.8000
  B lowup input method:        Cursor    
  O rientation of plot:        Landscape 
  C olor PostScript output?     F

      Option, Value   (or <Return>)    c>  
 XFOIL   c>  
 Labeled airfoil file.  Name:  000061                                          

 Number of input coordinate points: 200
 Clockwise ordering
 Max thickness =     0.148438  at x =   0.206
 Max camber    =     0.105529  at x =   0.437

  LE  x,y  =  -0.00003   0.00124  |   Chord =   0.99990
  TE  x,y  =   0.99988   0.00004  |

 Current airfoil nodes set from buffer airfoil nodes ( 200 )

 XFOIL   c>  
 You are working with the buffer airfoil

.GDES   c>  
  i       x        y      angle
   2   0.9990   0.0003   -0.002
   3   0.9978   0.0006   -0.093
   4   0.9961   0.0011   -0.073
   5   0.9938   0.0018   -0.097
   6   0.9911   0.0026   -0.122
   7   0.9880   0.0035   -0.158
   8   0.9843   0.0046   -0.138
   9   0.9801   0.0059   -0.183
  10   0.9755   0.0073   -0.165
  11   0.9704   0.0089   -0.198
  12   0.9649   0.0106   -0.199
  13   0.9589   0.0126   -0.204
  14   0.9524   0.0146   -0.209
  15   0.9455   0.0169   -0.197
  16   0.9382   0.0193   -0.210
  17   0.9304   0.0219   -0.196
  18   0.9222   0.0247   -0.192
  19   0.9135   0.0276   -0.181
  20   0.9045   0.0307   -0.173
  21   0.8951   0.0340   -0.156
  22   0.8853   0.0375   -0.133
  23   0.8751   0.0411   -0.119
  24   0.8645   0.0448   -0.098
  25   0.8536   0.0487   -0.074
  26   0.8423   0.0528   -0.044
  27   0.8307   0.0570   -0.015
  28   0.8187   0.0613    0.009
  29   0.8065   0.0657    0.045
  30   0.7939   0.0702    0.076
  31   0.7810   0.0748    0.114
  32   0.7679   0.0795    0.150
  33   0.7545   0.0842    0.187
  34   0.7409   0.0890    0.229
  35   0.7270   0.0938    0.261
  36   0.7129   0.0986    0.312
  37   0.6986   0.1033    0.350
  38   0.6841   0.1081    0.392
  39   0.6694   0.1128    0.437
  40   0.6545   0.1174    0.478
  41   0.6395   0.1219    0.525
  42   0.6243   0.1263    0.571
  43   0.6091   0.1306    0.607
  44   0.5937   0.1348    0.662
  45   0.5782   0.1388    0.695
  46   0.5627   0.1426    0.741
  47   0.5471   0.1462    0.786
  48   0.5314   0.1495    0.825
  49   0.5157   0.1527    0.865
  50   0.5000   0.1556    0.905
  51   0.4843   0.1583    0.941
  52   0.4686   0.1607    0.976
  53   0.4529   0.1628    1.014
  54   0.4373   0.1646    1.044
  55   0.4218   0.1661    1.078
  56   0.4063   0.1674    1.099
  57   0.3909   0.1683    1.132
  58   0.3757   0.1689    1.156
  59   0.3605   0.1692    1.176
  60   0.3455   0.1692    1.199
  61   0.3306   0.1689    1.214
  62   0.3159   0.1683    1.235
  63   0.3014   0.1674    1.248
  64   0.2871   0.1661    1.264
  65   0.2730   0.1646    1.274
  66   0.2591   0.1628    1.289
  67   0.2455   0.1607    1.298
  68   0.2321   0.1583    1.313
  69   0.2190   0.1557    1.325
  70   0.2061   0.1528    1.335
  71   0.1935   0.1497    1.354
  72   0.1813   0.1463    1.366
  73   0.1693   0.1427    1.392
  74   0.1577   0.1389    1.410
  75   0.1464   0.1349    1.432
  76   0.1355   0.1307    1.467
  77   0.1249   0.1264    1.510
  78   0.1147   0.1218    1.544
  79   0.1049   0.1171    1.604
  80   0.0955   0.1123    1.652
  81   0.0865   0.1074    1.726
  82   0.0778   0.1023    1.803
  83   0.0696   0.0971    1.898
  84   0.0618   0.0918    1.996
  85   0.0545   0.0865    2.112
  86   0.0476   0.0810    2.256
  87   0.0411   0.0755    2.391
  88   0.0351   0.0699    2.569
  89   0.0296   0.0643    2.751
  90   0.0245   0.0586    2.949
  91   0.0199   0.0528    3.169
  92   0.0157   0.0470    3.408
  93   0.0120   0.0412    3.623
  94   0.0089   0.0354    3.888
  95   0.0062   0.0295    4.112
  96   0.0039   0.0236    4.316
  97   0.0022   0.0177    4.520
  98   0.0010   0.0118    4.647
  99   0.0002   0.0059    4.742
 100   0.0000   0.0000    8.971
 101   0.0002  -0.0021   12.678
 102   0.0010  -0.0043   11.465
 103   0.0022  -0.0063    9.953
 104   0.0039  -0.0083    8.423
 105   0.0062  -0.0103    7.108
 106   0.0089  -0.0121    6.018
 107   0.0120  -0.0137    5.122
 108   0.0157  -0.0153    4.438
 109   0.0199  -0.0166    3.838
 110   0.0245  -0.0178    3.388
 111   0.0296  -0.0188    2.992
 112   0.0351  -0.0196    2.656
 113   0.0411  -0.0201    2.383
 114   0.0476  -0.0205    2.121
 115   0.0545  -0.0206    1.921
 116   0.0618  -0.0204    1.712
 117   0.0696  -0.0201    1.539
 118   0.0778  -0.0194    1.374
 119   0.0865  -0.0186    1.230
 120   0.0955  -0.0175    1.096
 121   0.1049  -0.0161    0.958
 122   0.1147  -0.0146    0.841
 123   0.1249  -0.0128    0.728
 124   0.1355  -0.0109    0.617
 125   0.1464  -0.0087    0.528
 126   0.1577  -0.0064    0.414
 127   0.1693  -0.0039    0.330
 128   0.1813  -0.0012    0.248
 129   0.1935   0.0015    0.151
 130   0.2061   0.0044    0.080
 131   0.2190   0.0073    0.001
 132   0.2321   0.0104   -0.071
 133   0.2455   0.0134   -0.146
 134   0.2591   0.0165   -0.211
 135   0.2730   0.0196   -0.269
 136   0.2871   0.0226   -0.336
 137   0.3014   0.0257   -0.387
 138   0.3159   0.0286   -0.446
 139   0.3306   0.0315   -0.490
 140   0.3455   0.0343   -0.540
 141   0.3605   0.0369   -0.583
 142   0.3757   0.0394   -0.619
 143   0.3909   0.0418   -0.659
 144   0.4063   0.0440   -0.681
 145   0.4218   0.0460   -0.711
 146   0.4373   0.0479   -0.737
 147   0.4529   0.0495   -0.753
 148   0.4686   0.0510   -0.764
 149   0.4843   0.0522   -0.777
 150   0.5000   0.0533   -0.782
 151   0.5157   0.0541   -0.784
 152   0.5314   0.0547   -0.778
 153   0.5471   0.0551   -0.777
 154   0.5627   0.0552   -0.760
 155   0.5782   0.0552   -0.756
 156   0.5937   0.0550   -0.731
 157   0.6091   0.0545   -0.712
 158   0.6243   0.0539   -0.694
 159   0.6395   0.0531   -0.663
 160   0.6545   0.0521   -0.640
 161   0.6694   0.0510   -0.611
 162   0.6841   0.0497   -0.574
 163   0.6986   0.0483   -0.546
 164   0.7129   0.0468   -0.515
 165   0.7270   0.0452   -0.475
 166   0.7409   0.0435   -0.444
 167   0.7545   0.0417   -0.408
 168   0.7679   0.0398   -0.374
 169   0.7810   0.0379   -0.338
 170   0.7939   0.0360   -0.303
 171   0.8065   0.0340   -0.271
 172   0.8187   0.0320   -0.237
 173   0.8307   0.0300   -0.207
 174   0.8423   0.0281   -0.175
 175   0.8536   0.0261   -0.143
 176   0.8645   0.0242   -0.121
 177   0.8751   0.0223   -0.092
 178   0.8853   0.0205   -0.074
 179   0.8951   0.0187   -0.045
 180   0.9045   0.0170   -0.020
 181   0.9135   0.0154   -0.014
 182   0.9222   0.0138    0.007
 183   0.9304   0.0123    0.026
 184   0.9382   0.0109    0.035
 185   0.9455   0.0095    0.045
 186   0.9524   0.0083    0.055
 187   0.9589   0.0071    0.047
 188   0.9649   0.0061    0.072
 189   0.9704   0.0051    0.065
 190   0.9755   0.0042    0.067
 191   0.9801   0.0034    0.057
 192   0.9843   0.0027    0.075
 193   0.9880   0.0020    0.041
 194   0.9911   0.0015    0.056
 195   0.9938   0.0010    0.026
 196   0.9961   0.0007    0.062
 197   0.9978   0.0004    0.043
 198   0.9990   0.0002   -0.050
 199   0.9998   0.0000    0.163

 Maximum panel corner angle = 12.678   at  i,x,y  = 101   0.0002  -0.0021

 Enter corner angle criterion for refinement (deg):   6.339
 Enter type of spline parameter (1=uniform, 2=arclength):   1
 Enter refinement x limits:  -0.10000   1.10000
 Number of points added:           12
 Max thickness =     0.148391  at x =   0.206
 Max camber    =     0.106293  at x =   0.437

 Maximum panel corner angle =  7.747   at  i,x,y  = 103   0.0001  -0.0016

.GDES   c>  
 Buffer airfoil is not identical to current airfoil

 XFOIL   c>  
 Blunt trailing edge.  Gap =  0.00026

 Paneling parameters used...
   Number of panel nodes       160
   Panel bunching parameter    1.000
   TE/LE panel density ratio   0.150
   Refined-area/LE panel density ratio    0.200
   Top    side refined area x/c limits  1.000 1.000
   Bottom side refined area x/c limits  1.000 1.000

 XFOIL   c>  
Enter output filename   s>  
 XFOIL   c>  
.OPERi   c>   Current iteration limit:          20

Enter new iteration limit   i>  
Enter new iteration limit   i>  
Enter new iteration limit   i>  
.OPERi   c>  
 M  =    0.0000
 Re =  0.3000E+06

.OPERv   c>  
 Sonic Cp =   -420.65      Sonic Q/Qinf =    22.825


.OPERv   c>  
 Polar  1 newly created for accumulation
 Airfoil archived with polar: 000061                                          

Enter  polar save filename  OR  <return> for no file   s>  
 New polar save file available

Enter  polar dump filename  OR  <return> for no file   s>  
 Polar dump file will NOT be written

 Polar accumulation enabled

.OPERva   c>   Calculating unit vorticity distributions ...
 Calculating wake trajectory ...
 Calculating source influence matrix ...

 Solving BL system ...

 Initializing BL ...
    side            1  ...
 MRCHUE: Inverse mode at  54     Hk =   4.051
 MRCHUE: Inverse mode at  55     Hk =   4.842
 MRCHUE: Inverse mode at  56     Hk =   5.615
 MRCHUE: Inverse mode at  57     Hk =   6.377
 MRCHUE: Inverse mode at  58     Hk =   7.132
 MRCHUE: Inverse mode at  59     Hk =   7.883
 MRCHUE: Inverse mode at  60     Hk =   8.631
 MRCHUE: Inverse mode at  61     Hk =   9.378
 MRCHUE: Inverse mode at  62     Hk =   5.796
 MRCHUE: Inverse mode at  63     Hk =   3.976
 MRCHUE: Inverse mode at  64     Hk =   2.752
 MRCHUE: Convergence failed at  86  side 1    Res =  0.3744E+01
    side            2  ...
 MRCHUE: Inverse mode at  30     Hk =   4.362
 MRCHUE: Inverse mode at  31     Hk =   5.160
 MRCHUE: Inverse mode at  32     Hk =   5.982
 MRCHUE: Inverse mode at  33     Hk =   6.829
 MRCHUE: Inverse mode at  34     Hk =   7.698
 MRCHUE: Inverse mode at  35     Hk =   8.579
 MRCHUE: Inverse mode at  36     Hk =   9.458
 MRCHUE: Inverse mode at  37     Hk =   6.553
 MRCHUE: Inverse mode at  38     Hk =   4.043
 MRCHUE: Inverse mode at  39     Hk =   2.522
 MRCHUE: Convergence failed at  76  side 2    Res =  0.1936E+01

 MRCHDU: Convergence failed at  86  side 1    Res =  0.3971E+01
 Side 1  free  transition at x/c =  0.5409   62
 Side 2  free  transition at x/c =  0.2501   37

   1   rms: 0.3191E+00   max: 0.1494E+01   D at   78  2   RLX: 0.473
       a =  2.000      CL =  1.3395
      Cm = -0.2172     CD =  0.01140   =>   CDf =  0.00777    CDp =  0.00363

 Side 1  free  transition at x/c =  0.5458   62
 Side 2  free  transition at x/c =  0.2461   37

   2   rms: 0.1264E+00   max: 0.4555E+00   D at   82  2
       a =  2.000      CL =  1.2945
      Cm = -0.2090     CD =  0.01634   =>   CDf =  0.00787    CDp =  0.00848

 Side 1  free  transition at x/c =  0.5568   61
 Side 2  free  transition at x/c =  0.2428   37

   3   rms: 0.1558E-01   max: -.9603E-01   D at   63  1
       a =  2.000      CL =  1.2978
      Cm = -0.2096     CD =  0.01630   =>   CDf =  0.00777    CDp =  0.00853

 Side 1  free  transition at x/c =  0.5559   61
 Side 2  free  transition at x/c =  0.2401   37

   4   rms: 0.1961E-02   max: -.1932E-01   D at    4  2
       a =  2.000      CL =  1.2977
      Cm = -0.2096     CD =  0.01631   =>   CDf =  0.00769    CDp =  0.00862

 Side 1  free  transition at x/c =  0.5558   61
 Side 2  free  transition at x/c =  0.2400   37

   5   rms: 0.7939E-05   max: 0.9324E-04   D at    8  2
       a =  2.000      CL =  1.2977
      Cm = -0.2096     CD =  0.01631   =>   CDf =  0.00769    CDp =  0.00862

 Point added to stored polar  1
 Point written to save file  000061M0.04.log                                 
 Dump file unspecified or not available
 Calculating wake trajectory ...
 Calculating source influence matrix ...

 Solving BL system ...

 Side 1  free  transition at x/c =  0.5558   61
 Side 2  free  transition at x/c =  0.2400   37

   1   rms: 0.1573E+00   max: -.1114E+01   T at   37  2   RLX: 0.449
       a =  3.000      CL =  1.3452
      Cm = -0.2094     CD =  0.01658   =>   CDf =  0.00751    CDp =  0.00907

 Side 1  free  transition at x/c =  0.5480   62
 Side 2  free  transition at x/c =  0.2611   37

   2   rms: 0.9610E-01   max: 0.7867E+00   D at   37  2
       a =  3.000      CL =  1.4081
      Cm = -0.2097     CD =  0.01662   =>   CDf =  0.00739    CDp =  0.00923

 Side 1  free  transition at x/c =  0.5407   63
 Side 2  free  transition at x/c =  0.2815   37

   3   rms: 0.3306E-01   max: 0.4068E+00   C at   37  2
       a =  3.000      CL =  1.4091
      Cm = -0.2098     CD =  0.01666   =>   CDf =  0.00768    CDp =  0.00898

 Side 1  free  transition at x/c =  0.5413   63
 Side 2  free  transition at x/c =  0.2805   37

   4   rms: 0.6188E-02   max: 0.5886E-01   D at   38  2
       a =  3.000      CL =  1.4090
      Cm = -0.2098     CD =  0.01671   =>   CDf =  0.00770    CDp =  0.00901

 Side 1  free  transition at x/c =  0.5412   63
 Side 2  free  transition at x/c =  0.2785   37

   5   rms: 0.1950E-03   max: -.1638E-02   D at   39  2
       a =  3.000      CL =  1.4090
      Cm = -0.2098     CD =  0.01671   =>   CDf =  0.00771    CDp =  0.00901

 Side 1  free  transition at x/c =  0.5412   63
 Side 2  free  transition at x/c =  0.2785   37

   6   rms: 0.3450E-05   max: 0.4403E-04   D at    4  1
       a =  3.000      CL =  1.4090
      Cm = -0.2098     CD =  0.01671   =>   CDf =  0.00771    CDp =  0.00901

 Point added to stored polar  1
 Point written to save file  000061M0.04.log                                 
 Dump file unspecified or not available
 Calculating wake trajectory ...
 Calculating source influence matrix ...

 Solving BL system ...

 Side 1  free  transition at x/c =  0.5412   63
 Side 2  free  transition at x/c =  0.2785   37

   1   rms: 0.1640E+00   max: -.1135E+01   T at   37  2   RLX: 0.440
       a =  4.000      CL =  1.4606
      Cm = -0.2103     CD =  0.01716   =>   CDf =  0.00772    CDp =  0.00944

 Side 1  free  transition at x/c =  0.5360   62
 Side 2  free  transition at x/c =  0.3004   38

   2   rms: 0.8534E-01   max: -.5949E+00   T at   38  2   RLX: 0.840
       a =  4.000      CL =  1.5025
      Cm = -0.2091     CD =  0.01749   =>   CDf =  0.00745    CDp =  0.01003

 MRCHDU: Convergence failed at  39  side 2    Res =  0.1793E+01
 MRCHDU: Convergence failed at  40  side 2    Res =  0.5582E+01
 MRCHDU: Convergence failed at  41  side 2    Res =  0.3359E+01
 MRCHDU: Convergence failed at  42  side 2    Res =  0.3631E+01
 MRCHDU: Convergence failed at  43  side 2    Res =  0.2882E+01
 MRCHDU: Convergence failed at  44  side 2    Res =  0.3257E+01
 MRCHDU: Convergence failed at  45  side 2    Res =  0.3505E+01
 MRCHDU: Convergence failed at  46  side 2    Res =  0.3638E+01
 MRCHDU: Convergence failed at  47  side 2    Res =  0.3672E+01
 MRCHDU: Convergence failed at  48  side 2    Res =  0.3623E+01
 MRCHDU: Convergence failed at  49  side 2    Res =  0.3510E+01
 MRCHDU: Convergence failed at  50  side 2    Res =  0.3353E+01
 MRCHDU: Convergence failed at  51  side 2    Res =  0.3151E+01
 MRCHDU: Convergence failed at  52  side 2    Res =  0.2928E+01
 MRCHDU: Convergence failed at  53  side 2    Res =  0.5024E+01
 MRCHDU: Convergence failed at  54  side 2    Res =  0.4706E+01
 MRCHDU: Convergence failed at  55  side 2    Res =  0.4367E+01
 MRCHDU: Convergence failed at  56  side 2    Res =  0.4146E+01
 MRCHDU: Convergence failed at  57  side 2    Res =  0.3921E+01
 MRCHDU: Convergence failed at  58  side 2    Res =  0.3817E+01
 MRCHDU: Convergence failed at  59  side 2    Res =  0.4863E+01
 MRCHDU: Convergence failed at  60  side 2    Res =  0.6306E+01
 MRCHDU: Convergence failed at  61  side 2    Res =  0.1163E+02
 Side 1  free  transition at x/c =  0.5258   63
 Side 2  free  transition at x/c =  0.3216   38

   3   rms: 0.1506E+00   max: 0.9748E+00   T at   38  2   RLX: 0.682
       a =  4.000      CL =  1.4902
      Cm = -0.2039     CD =  0.01680   =>   CDf =  0.00652    CDp =  0.01028

 Side 1  free  transition at x/c =  0.5261   63
 Side 2  free  transition at x/c =  0.3014   37

   4   rms: 0.1031E+00   max: -.9771E+00   T at   37  2   RLX: 0.512
       a =  4.000      CL =  1.5075
      Cm = -0.2073     CD =  0.01795   =>   CDf =  0.00795    CDp =  0.00999

 MRCHDU: Convergence failed at  39  side 2    Res =  0.3418E+01
 MRCHDU: Convergence failed at  40  side 2    Res =  0.3994E+01
 MRCHDU: Convergence failed at  41  side 2    Res =  0.4612E+01
 MRCHDU: Convergence failed at  42  side 2    Res =  0.2853E+01
 MRCHDU: Convergence failed at  43  side 2    Res =  0.2862E+01
 MRCHDU: Convergence failed at  44  side 2    Res =  0.3108E+01
 MRCHDU: Convergence failed at  45  side 2    Res =  0.3306E+01
 MRCHDU: Convergence failed at  46  side 2    Res =  0.3491E+01
 MRCHDU: Convergence failed at  47  side 2    Res =  0.3652E+01
 MRCHDU: Convergence failed at  48  side 2    Res =  0.3953E+01
 MRCHDU: Convergence failed at  49  side 2    Res =  0.4119E+01
 MRCHDU: Convergence failed at  50  side 2    Res =  0.4294E+01
 MRCHDU: Convergence failed at  51  side 2    Res =  0.4471E+01
 MRCHDU: Convergence failed at  52  side 2    Res =  0.4680E+01
 MRCHDU: Convergence failed at  53  side 2    Res =  0.4850E+01
 MRCHDU: Convergence failed at  54  side 2    Res =  0.6194E+01
 MRCHDU: Convergence failed at  55  side 2    Res =  0.7350E+01
 MRCHDU: Convergence failed at  56  side 2    Res =  0.9003E+01
 MRCHDU: Convergence failed at  57  side 2    Res =  0.1213E+02
 MRCHDU: Convergence failed at  58  side 2    Res =  0.9725E+01
 MRCHDU: Convergence failed at  59  side 2    Res =  0.2018E+02
 MRCHDU: Convergence failed at  60  side 2    Res =  0.1708E+03
 MRCHDU: Convergence failed at  61  side 2    Res =  0.1634E+02
 MRCHDU: Convergence failed at  62  side 2    Res =  0.6063E+01
 Side 1  free  transition at x/c =  0.5261   63
 Side 2  free  transition at x/c =  0.3219   38

   5   rms: 0.1541E+00   max: 0.1069E+01   T at   38  2   RLX: 0.627
       a =  4.000      CL =  1.4917
      Cm = -0.2034     CD =  0.01668   =>   CDf =  0.00645    CDp =  0.01023

 MRCHDU: Convergence failed at  45  side 2    Res =  0.1659E+01
 MRCHDU: Convergence failed at  46  side 2    Res =  0.3541E+00
 Side 1  free  transition at x/c =  0.5261   63
 Side 2  free  transition at x/c =  0.3018   37

   6   rms: 0.1052E+00   max: -.9841E+00   T at   37  2   RLX: 0.508
       a =  4.000      CL =  1.5083
      Cm = -0.2070     CD =  0.01794   =>   CDf =  0.00801    CDp =  0.00994

 MRCHDU: Convergence failed at  39  side 2    Res =  0.6667E+01
 MRCHDU: Convergence failed at  40  side 2    Res =  0.3887E+01
 MRCHDU: Convergence failed at  41  side 2    Res =  0.6094E+01
 MRCHDU: Convergence failed at  42  side 2    Res =  0.1953E+01
 MRCHDU: Convergence failed at  43  side 2    Res =  0.2831E+01
 MRCHDU: Convergence failed at  44  side 2    Res =  0.3042E+01
 MRCHDU: Convergence failed at  45  side 2    Res =  0.3215E+01
 MRCHDU: Convergence failed at  46  side 2    Res =  0.3378E+01
 MRCHDU: Convergence failed at  47  side 2    Res =  0.3557E+01
 MRCHDU: Convergence failed at  48  side 2    Res =  0.3870E+01
 MRCHDU: Convergence failed at  49  side 2    Res =  0.4037E+01
 MRCHDU: Convergence failed at  50  side 2    Res =  0.4222E+01
 MRCHDU: Convergence failed at  51  side 2    Res =  0.4414E+01
 MRCHDU: Convergence failed at  52  side 2    Res =  0.4649E+01
 MRCHDU: Convergence failed at  53  side 2    Res =  0.4845E+01
 MRCHDU: Convergence failed at  54  side 2    Res =  0.6496E+01
 MRCHDU: Convergence failed at  55  side 2    Res =  0.7977E+01
 MRCHDU: Convergence failed at  56  side 2    Res =  0.9433E+01
 MRCHDU: Convergence failed at  57  side 2    Res =  0.1498E+02
 MRCHDU: Convergence failed at  58  side 2    Res =  0.3010E+02
 MRCHDU: Convergence failed at  59  side 2    Res =  0.4950E+02
 MRCHDU: Convergence failed at  60  side 2    Res =  0.5683E+02
 MRCHDU: Convergence failed at  61  side 2    Res =  0.1117E+02
 MRCHDU: Convergence failed at  62  side 2    Res =  0.6290E+01
 Side 1  free  transition at x/c =  0.5261   63
 Side 2  free  transition at x/c =  0.3221   38

   7   rms: 0.1550E+00   max: 0.1103E+01   T at   38  2   RLX: 0.623
       a =  4.000      CL =  1.4921
      Cm = -0.2033     CD =  0.01666   =>   CDf =  0.00644    CDp =  0.01022

 MRCHDU: Convergence failed at  50  side 2    Res =  0.2445E+01
 Side 1  free  transition at x/c =  0.5261   63
 Side 2  free  transition at x/c =  0.3017   37

   8   rms: 0.1383E+00   max: -.1139E+01   T at   37  2   RLX: 0.439
       a =  4.000      CL =  1.5092
      Cm = -0.2071     CD =  0.01797   =>   CDf =  0.00789    CDp =  0.01008

 MRCHDU: Convergence failed at  44  side 2    Res =  0.4655E+00
 Side 1  free  transition at x/c =  0.5261   63
 Side 2  free  transition at x/c =  0.3219   38

   9   rms: 0.7362E-01   max: -.8384E+00   D at   41  2   RLX: 0.596
       a =  4.000      CL =  1.5099
      Cm = -0.2080     CD =  0.01736   =>   CDf =  0.00779    CDp =  0.00957

 Side 1  free  transition at x/c =  0.5261   63
 Side 2  free  transition at x/c =  0.3268   39

  10   rms: 0.3460E-01   max: -.5457E+00   D at   41  2   RLX: 0.916
       a =  4.000      CL =  1.5152
      Cm = -0.2094     CD =  0.01725   =>   CDf =  0.00760    CDp =  0.00964

 Side 1  free  transition at x/c =  0.5261   63
 Side 2  free  transition at x/c =  0.3242   39

  11   rms: 0.1274E-01   max: -.2763E+00   D at   41  2
       a =  4.000      CL =  1.5158
      Cm = -0.2095     CD =  0.01729   =>   CDf =  0.00757    CDp =  0.00972

 Side 1  free  transition at x/c =  0.5261   63
 Side 2  free  transition at x/c =  0.3228   38

  12   rms: 0.2579E-02   max: -.4781E-01   D at   41  2
       a =  4.000      CL =  1.5157
      Cm = -0.2095     CD =  0.01729   =>   CDf =  0.00759    CDp =  0.00971

 Side 1  free  transition at x/c =  0.5261   63
 Side 2  free  transition at x/c =  0.3224   38

  13   rms: 0.5234E-04   max: -.8571E-03   D at   41  2
       a =  4.000      CL =  1.5157
      Cm = -0.2095     CD =  0.01729   =>   CDf =  0.00759    CDp =  0.00971

 Point added to stored polar  1
 Point written to save file  000061M0.04.log                                 
 Dump file unspecified or not available
 Calculating wake trajectory ...
 Calculating source influence matrix ...

 Solving BL system ...

 Side 1  free  transition at x/c =  0.5261   63
 Side 2  free  transition at x/c =  0.3224   38

   1   rms: 0.1680E+00   max: -.1297E+01   T at   38  2   RLX: 0.386
       a =  5.000      CL =  1.5583
      Cm = -0.2096     CD =  0.01757   =>   CDf =  0.00760    CDp =  0.00997

 MRCHDU: Convergence failed at  40  side 2    Res =  0.1058E+02
 MRCHDU: Convergence failed at  41  side 2    Res =  0.5172E+01
 MRCHDU: Convergence failed at  42  side 2    Res =  0.2910E+02
 MRCHDU: Convergence failed at  43  side 2    Res =  0.4557E+02
 MRCHDU: Convergence failed at  44  side 2    Res =  0.2458E+02
 MRCHDU: Convergence failed at  45  side 2    Res =  0.2153E+02
 MRCHDU: Convergence failed at  46  side 2    Res =  0.2238E+02
 MRCHDU: Convergence failed at  47  side 2    Res =  0.2526E+02
 MRCHDU: Convergence failed at  48  side 2    Res =  0.3045E+02
 MRCHDU: Convergence failed at  49  side 2    Res =  0.3769E+02
 MRCHDU: Convergence failed at  50  side 2    Res =  0.5170E+02
 MRCHDU: Convergence failed at  51  side 2    Res =  0.9283E+02
 MRCHDU: Convergence failed at  52  side 2    Res =  0.8132E+03
 MRCHDU: Convergence failed at  53  side 2    Res =  0.9019E+02
 MRCHDU: Convergence failed at  54  side 2    Res =  0.3618E+02
 MRCHDU: Convergence failed at  55  side 2    Res =  0.1979E+02
 MRCHDU: Convergence failed at  56  side 2    Res =  0.1222E+02
 MRCHDU: Convergence failed at  57  side 2    Res =  0.7306E+01
 MRCHDU: Convergence failed at  58  side 2    Res =  0.4900E+01
 MRCHDU: Convergence failed at  59  side 2    Res =  0.3401E+01
 MRCHDU: Convergence failed at  60  side 2    Res =  0.2393E+01
 Side 1  free  transition at x/c =  0.5214   62
 Side 2  free  transition at x/c =  0.3485   40

   2   rms: 0.2504E+00   max: -.1300E+01   D at   58  2   RLX: 0.385
       a =  5.000      CL =  1.5562
      Cm = -0.2023     CD =  0.01717   =>   CDf =  0.00651    CDp =  0.01065

 Side 1  free  transition at x/c =  0.5170   62
 Side 2  free  transition at x/c =  0.3634   41

   3   rms: 0.9792E-01   max: -.6194E+00   D at   42  2   RLX: 0.807
       a =  5.000      CL =  1.6071
      Cm = -0.2077     CD =  0.01806   =>   CDf =  0.00755    CDp =  0.01051

 Side 1  free  transition at x/c =  0.5115   63
 Side 2  free  transition at x/c =  0.3728   40

   4   rms: 0.2932E-01   max: -.3465E+00   D at   41  2
       a =  5.000      CL =  1.6202
      Cm = -0.2091     CD =  0.01805   =>   CDf =  0.00747    CDp =  0.01058

 Side 1  free  transition at x/c =  0.5108   63
 Side 2  free  transition at x/c =  0.3777   40

   5   rms: 0.2887E-02   max: 0.3448E-01   D at   41  2
       a =  5.000      CL =  1.6202
      Cm = -0.2091     CD =  0.01803   =>   CDf =  0.00740    CDp =  0.01063

 Side 1  free  transition at x/c =  0.5108   63
 Side 2  free  transition at x/c =  0.3767   40

   6   rms: 0.4352E-04   max: -.4725E-03   D at   40  2
       a =  5.000      CL =  1.6202
      Cm = -0.2091     CD =  0.01803   =>   CDf =  0.00740    CDp =  0.01063

 Point added to stored polar  1
 Point written to save file  000061M0.04.log                                 
 Dump file unspecified or not available
 Calculating wake trajectory ...
 Calculating source influence matrix ...

 Solving BL system ...

 Side 1  free  transition at x/c =  0.5108   63
 Side 2  free  transition at x/c =  0.3767   40

   1   rms: 0.1594E+00   max: -.1116E+01   T at   40  2   RLX: 0.448
       a =  6.000      CL =  1.6674
      Cm = -0.2089     CD =  0.01831   =>   CDf =  0.00741    CDp =  0.01090

 MRCHDU: Convergence failed at  42  side 2    Res =  0.5836E+02
 MRCHDU: Convergence failed at  43  side 2    Res =  0.2890E+01
 MRCHDU: Convergence failed at  44  side 2    Res =  0.4347E+01
 MRCHDU: Convergence failed at  45  side 2    Res =  0.1460E+02
 MRCHDU: Convergence failed at  46  side 2    Res =  0.1474E+04
 MRCHDU: Convergence failed at  47  side 2    Res =  0.5626E+02
 MRCHDU: Convergence failed at  48  side 2    Res =  0.4475E+02
 MRCHDU: Convergence failed at  49  side 2    Res =  0.7332E+02
 MRCHDU: Convergence failed at  50  side 2    Res =  0.1182E+03
 MRCHDU: Convergence failed at  51  side 2    Res =  0.2372E+02
 MRCHDU: Convergence failed at  52  side 2    Res =  0.1107E+02
 MRCHDU: Convergence failed at  53  side 2    Res =  0.6401E+01
 MRCHDU: Convergence failed at  54  side 2    Res =  0.3636E+01
 Side 1  free  transition at x/c =  0.5041   62
 Side 2  free  transition at x/c =  0.4115   42

   2   rms: 0.1903E+00   max: -.1241E+01   D at   52  2   RLX: 0.403
       a =  6.000      CL =  1.6782
      Cm = -0.2058     CD =  0.01840   =>   CDf =  0.00660    CDp =  0.01180

 Side 1  free  transition at x/c =  0.5006   63
 Side 2  free  transition at x/c =  0.4365   42

   3   rms: 0.7663E-01   max: 0.8355E+00   D at    2  1   RLX: 0.987
       a =  6.000      CL =  1.7198
      Cm = -0.2081     CD =  0.01899   =>   CDf =  0.00740    CDp =  0.01158

 Side 1  free  transition at x/c =  0.4950   63
 Side 2  free  transition at x/c =  0.4631   44

   4   rms: 0.1121E-01   max: 0.1709E+00   D at   44  2
       a =  6.000      CL =  1.7215
      Cm = -0.2084     CD =  0.01886   =>   CDf =  0.00716    CDp =  0.01170

 Side 1  free  transition at x/c =  0.4953   63
 Side 2  free  transition at x/c =  0.4602   44

   5   rms: 0.2288E-02   max: 0.3350E-01   C at   44  2
       a =  6.000      CL =  1.7215
      Cm = -0.2084     CD =  0.01887   =>   CDf =  0.00714    CDp =  0.01173

 Side 1  free  transition at x/c =  0.4953   63
 Side 2  free  transition at x/c =  0.4592   44

   6   rms: 0.3302E-04   max: -.4898E-03   D at   46  2
       a =  6.000      CL =  1.7215
      Cm = -0.2084     CD =  0.01887   =>   CDf =  0.00715    CDp =  0.01172

 Point added to stored polar  1
 Point written to save file  000061M0.04.log                                 
 Dump file unspecified or not available
 Calculating wake trajectory ...
 Calculating source influence matrix ...

 Solving BL system ...

 Side 1  free  transition at x/c =  0.4953   63
 Side 2  free  transition at x/c =  0.4592   44

   1   rms: 0.2125E+00   max: -.1977E+01   C at   44  2   RLX: 0.253
       a =  7.000      CL =  1.7462
      Cm = -0.2082     CD =  0.01901   =>   CDf =  0.00716    CDp =  0.01184

 Side 1  free  transition at x/c =  0.4910   63
 Side 2  free  transition at x/c =  0.4855   45

   2   rms: 0.1531E+00   max: -.1176E+01   T at   45  2   RLX: 0.425
       a =  7.000      CL =  1.7804
      Cm = -0.2083     CD =  0.01931   =>   CDf =  0.00687    CDp =  0.01245

 Side 1  free  transition at x/c =  0.4865   64
 Side 2  free  transition at x/c =  0.5380   47

   3   rms: 0.2532E+00   max: -.4202E+01   C at   47  2   RLX: 0.119
       a =  7.000      CL =  1.7871
      Cm = -0.2084     CD =  0.01950   =>   CDf =  0.00714    CDp =  0.01237

 Side 1  free  transition at x/c =  0.4858   63
 Side 2  free  transition at x/c =  0.5486   47

   4   rms: 0.9546E-01   max: -.1039E+01   T at   47  2   RLX: 0.481
       a =  7.000      CL =  1.8010
      Cm = -0.2078     CD =  0.01968   =>   CDf =  0.00714    CDp =  0.01253

 Side 1  free  transition at x/c =  0.4827   63
 Side 2 forced transition at x/c =  1.0001   71

   5   rms: 0.5444E-01   max: 0.4715E+00   D at   47  2
       a =  7.000      CL =  1.8147
      Cm = -0.2064     CD =  0.01945   =>   CDf =  0.00658    CDp =  0.01287

 Side 1  free  transition at x/c =  0.4791   63
 Side 2 forced transition at x/c =  1.0001   71

   6   rms: 0.6966E-02   max: 0.4795E-01   D at   48  2
       a =  7.000      CL =  1.8151
      Cm = -0.2065     CD =  0.01943   =>   CDf =  0.00656    CDp =  0.01287

 Side 1  free  transition at x/c =  0.4793   63
 Side 2 forced transition at x/c =  1.0001   71

   7   rms: 0.4194E-03   max: 0.2910E-02   D at   43  2
       a =  7.000      CL =  1.8152
      Cm = -0.2065     CD =  0.01943   =>   CDf =  0.00655    CDp =  0.01288

 Side 1  free  transition at x/c =  0.4793   63
 Side 2 forced transition at x/c =  1.0001   71

   8   rms: 0.1956E-05   max: 0.1238E-04   D at   42  2
       a =  7.000      CL =  1.8152
      Cm = -0.2065     CD =  0.01943   =>   CDf =  0.00655    CDp =  0.01288

 Point added to stored polar  1
 Point written to save file  000061M0.04.log                                 
 Dump file unspecified or not available
 Calculating wake trajectory ...
 Calculating source influence matrix ...

 Solving BL system ...

 Side 1  free  transition at x/c =  0.4793   63
 Side 2 forced transition at x/c =  1.0001   71

   1   rms: 0.1543E+00   max: -.3487E+00   n at   48  2
       a =  8.000      CL =  1.9023
      Cm = -0.2039     CD =  0.02081   =>   CDf =  0.00629    CDp =  0.01452

 Side 1  free  transition at x/c =  0.4622   63
 Side 2 forced transition at x/c =  1.0001   70

   2   rms: 0.3333E-01   max: -.2175E+00   D at   63  1
       a =  8.000      CL =  1.9022
      Cm = -0.2038     CD =  0.02078   =>   CDf =  0.00664    CDp =  0.01414

 Side 1  free  transition at x/c =  0.4630   63
 Side 2 forced transition at x/c =  1.0001   70

   3   rms: 0.1844E-02   max: 0.1140E-01   T at   63  1
       a =  8.000      CL =  1.9022
      Cm = -0.2038     CD =  0.02091   =>   CDf =  0.00654    CDp =  0.01437

 Side 1  free  transition at x/c =  0.4625   63
 Side 2 forced transition at x/c =  1.0001   70

   4   rms: 0.4423E-04   max: 0.1919E-03   D at   77  2
       a =  8.000      CL =  1.9022
      Cm = -0.2038     CD =  0.02091   =>   CDf =  0.00655    CDp =  0.01436

 Point added to stored polar  1
 Point written to save file  000061M0.04.log                                 
 Dump file unspecified or not available
 Calculating wake trajectory ...
 Calculating source influence matrix ...

 Solving BL system ...

 Side 1  free  transition at x/c =  0.4625   63
 Side 2 forced transition at x/c =  1.0001   70

   1   rms: 0.1339E+00   max: 0.2099E+00   D at   76  2
       a =  9.000      CL =  1.9732
      Cm = -0.1992     CD =  0.02277   =>   CDf =  0.00599    CDp =  0.01678

 Side 1  free  transition at x/c =  0.4440   64
 Side 2 forced transition at x/c =  1.0001   68

   2   rms: 0.5450E-01   max: -.7529E+00   T at    2  1   RLX: 0.664
       a =  9.000      CL =  1.9698
      Cm = -0.1981     CD =  0.02334   =>   CDf =  0.00687    CDp =  0.01647

 Side 1  free  transition at x/c =  0.4449   63
 Side 2 forced transition at x/c =  1.0001   69

   3   rms: 0.1077E-01   max: -.8612E-01   D at   63  1
       a =  9.000      CL =  1.9702
      Cm = -0.1987     CD =  0.02285   =>   CDf =  0.00650    CDp =  0.01635

 Side 1  free  transition at x/c =  0.4449   63
 Side 2 forced transition at x/c =  1.0001   69

   4   rms: 0.1011E-02   max: 0.8725E-02   D at    4  2
       a =  9.000      CL =  1.9709
      Cm = -0.1988     CD =  0.02286   =>   CDf =  0.00647    CDp =  0.01639

 Side 1  free  transition at x/c =  0.4448   63
 Side 2 forced transition at x/c =  1.0001   69

   5   rms: 0.1261E-04   max: -.1074E-03   D at    4  2
       a =  9.000      CL =  1.9708
      Cm = -0.1988     CD =  0.02286   =>   CDf =  0.00647    CDp =  0.01639

 Point added to stored polar  1
 Point written to save file  000061M0.04.log                                 
 Dump file unspecified or not available
 Calculating wake trajectory ...
 Calculating source influence matrix ...

 Solving BL system ...

 Side 1  free  transition at x/c =  0.4448   63
 Side 2 forced transition at x/c =  1.0001   69

   1   rms: 0.1273E+00   max: -.4979E+00   D at    3  2
       a = 10.000      CL =  2.0113
      Cm = -0.1904     CD =  0.02572   =>   CDf =  0.00587    CDp =  0.01985

 Side 1  free  transition at x/c =  0.4258   64
 Side 2 forced transition at x/c =  1.0001   67

   2   rms: 0.4179E-01   max: -.2534E+00   D at   64  1
       a = 10.000      CL =  2.0196
      Cm = -0.1920     CD =  0.02563   =>   CDf =  0.00641    CDp =  0.01922

 Side 1  free  transition at x/c =  0.4266   64
 Side 2 forced transition at x/c =  1.0001   67

   3   rms: 0.2745E-02   max: -.1993E-01   D at   78  2
       a = 10.000      CL =  2.0206
      Cm = -0.1922     CD =  0.02585   =>   CDf =  0.00631    CDp =  0.01955

 Side 1  free  transition at x/c =  0.4260   64
 Side 2 forced transition at x/c =  1.0001   67

   4   rms: 0.5223E-04   max: -.2941E-03   D at   64  1
       a = 10.000      CL =  2.0205
      Cm = -0.1922     CD =  0.02586   =>   CDf =  0.00632    CDp =  0.01954

 Point added to stored polar  1
 Point written to save file  000061M0.04.log                                 
 Dump file unspecified or not available
 Calculating wake trajectory ...
 Calculating source influence matrix ...

 Solving BL system ...

 Side 1  free  transition at x/c =  0.4260   64
 Side 2 forced transition at x/c =  1.0001   67

   1   rms: 0.1267E+00   max: 0.4465E+00   T at   64  1
       a = 11.000      CL =  2.0565
      Cm = -0.1852     CD =  0.02995   =>   CDf =  0.00599    CDp =  0.02396

 Side 1  free  transition at x/c =  0.4059   64
 Side 2 forced transition at x/c =  1.0001   66

   2   rms: 0.3701E-01   max: -.3040E+00   D at   64  1
       a = 11.000      CL =  2.0572
      Cm = -0.1855     CD =  0.02999   =>   CDf =  0.00622    CDp =  0.02377

 Side 1  free  transition at x/c =  0.4064   64
 Side 2 forced transition at x/c =  1.0001   66

   3   rms: 0.3203E-02   max: -.2207E-01   D at   66  1
       a = 11.000      CL =  2.0588
      Cm = -0.1859     CD =  0.03020   =>   CDf =  0.00613    CDp =  0.02407

 Side 1  free  transition at x/c =  0.4057   64
 Side 2 forced transition at x/c =  1.0001   66

   4   rms: 0.1431E-03   max: -.7108E-03   D at   86  1
       a = 11.000      CL =  2.0589
      Cm = -0.1859     CD =  0.03020   =>   CDf =  0.00615    CDp =  0.02405

 Side 1  free  transition at x/c =  0.4057   64
 Side 2 forced transition at x/c =  1.0001   66

   5   rms: 0.7282E-05   max: -.2999E-04   D at   84  1
       a = 11.000      CL =  2.0589
      Cm = -0.1859     CD =  0.03020   =>   CDf =  0.00615    CDp =  0.02405

 Point added to stored polar  1
 Point written to save file  000061M0.04.log                                 
 Dump file unspecified or not available
 Calculating wake trajectory ...
 Calculating source influence matrix ...

 Solving BL system ...

 Side 1  free  transition at x/c =  0.4057   64
 Side 2 forced transition at x/c =  1.0001   66

   1   rms: 0.1253E+00   max: -.3352E+00   D at   65  1
       a = 12.000      CL =  2.0965
      Cm = -0.1803     CD =  0.03510   =>   CDf =  0.00580    CDp =  0.02930

 Side 1  free  transition at x/c =  0.3855   64
 Side 2 forced transition at x/c =  1.0001   65

   2   rms: 0.3868E-01   max: -.3666E+00   D at   64  1
       a = 12.000      CL =  2.0876
      Cm = -0.1796     CD =  0.03545   =>   CDf =  0.00600    CDp =  0.02945

 Side 1  free  transition at x/c =  0.3852   64
 Side 2 forced transition at x/c =  1.0001   65

   3   rms: 0.5922E-02   max: -.4424E-01   D at   65  1
       a = 12.000      CL =  2.0900
      Cm = -0.1799     CD =  0.03566   =>   CDf =  0.00598    CDp =  0.02967

 Side 1  free  transition at x/c =  0.3843   64
 Side 2 forced transition at x/c =  1.0001   65

   4   rms: 0.7885E-03   max: -.3804E-02   D at   84  1
       a = 12.000      CL =  2.0905
      Cm = -0.1800     CD =  0.03565   =>   CDf =  0.00603    CDp =  0.02962

 Side 1  free  transition at x/c =  0.3842   64
 Side 2 forced transition at x/c =  1.0001   65

   5   rms: 0.4249E-04   max: -.2393E-03   D at   75  2
       a = 12.000      CL =  2.0906
      Cm = -0.1800     CD =  0.03565   =>   CDf =  0.00603    CDp =  0.02962

 Point added to stored polar  1
 Point written to save file  000061M0.04.log                                 
 Dump file unspecified or not available
 Calculating wake trajectory ...
 Calculating source influence matrix ...

 Solving BL system ...

 Side 1  free  transition at x/c =  0.3842   64
 Side 2 forced transition at x/c =  1.0001   65

   1   rms: 0.1300E+00   max: -.4756E+00   D at   65  1   RLX: 0.928
       a = 13.000      CL =  2.1562
      Cm = -0.1771     CD =  0.03816   =>   CDf =  0.00567    CDp =  0.03249

 Side 1  free  transition at x/c =  0.3603   63
 Side 2 forced transition at x/c =  1.0001   64

   2   rms: 0.9223E-01   max: 0.5090E+00   D at   85  1
       a = 13.000      CL =  2.0965
      Cm = -0.1737     CD =  0.04439   =>   CDf =  0.00643    CDp =  0.03795

 Side 1  free  transition at x/c =  0.3607   62
 Side 2 forced transition at x/c =  1.0001   65

   3   rms: 0.9168E-02   max: 0.1212E+00   D at   82  1
       a = 13.000      CL =  2.0951
      Cm = -0.1735     CD =  0.04410   =>   CDf =  0.00579    CDp =  0.03831

 Side 1  free  transition at x/c =  0.3598   62
 Side 2 forced transition at x/c =  1.0001   65

   4   rms: 0.7053E-03   max: -.7382E-02   D at   82  1
       a = 13.000      CL =  2.0954
      Cm = -0.1735     CD =  0.04399   =>   CDf =  0.00578    CDp =  0.03821

 Side 1  free  transition at x/c =  0.3598   62
 Side 2 forced transition at x/c =  1.0001   65

   5   rms: 0.1710E-04   max: -.1425E-03   D at   76  2
       a = 13.000      CL =  2.0954
      Cm = -0.1735     CD =  0.04399   =>   CDf =  0.00578    CDp =  0.03821

 Point added to stored polar  1
 Point written to save file  000061M0.04.log                                 
 Dump file unspecified or not available
 Calculating wake trajectory ...
 Calculating source influence matrix ...

 Solving BL system ...

 Side 1  free  transition at x/c =  0.3598   62
 Side 2 forced transition at x/c =  1.0001   65

   1   rms: 0.1457E+00   max: 0.6569E+00   D at   79  1   RLX: 0.670
       a = 14.000      CL =  2.0769
      Cm = -0.1696     CD =  0.05308   =>   CDf =  0.00541    CDp =  0.04768

 Side 1  free  transition at x/c =  0.3392   62
 Side 2 forced transition at x/c =  1.0001   64

   2   rms: 0.4385E-01   max: -.3445E+00   D at   62  1
       a = 14.000      CL =  2.0767
      Cm = -0.1679     CD =  0.05611   =>   CDf =  0.00574    CDp =  0.05037

 Side 1  free  transition at x/c =  0.3309   61
 Side 2 forced transition at x/c =  1.0001   64

   3   rms: 0.2107E-01   max: -.1194E+00   D at   81  1
       a = 14.000      CL =  2.0913
      Cm = -0.1682     CD =  0.05412   =>   CDf =  0.00569    CDp =  0.04844

 Side 1  free  transition at x/c =  0.3313   61
 Side 2 forced transition at x/c =  1.0001   64

   4   rms: 0.1457E-02   max: -.9051E-02   D at   77  2
       a = 14.000      CL =  2.0925
      Cm = -0.1684     CD =  0.05429   =>   CDf =  0.00569    CDp =  0.04860

 Side 1  free  transition at x/c =  0.3312   61
 Side 2 forced transition at x/c =  1.0001   64

   5   rms: 0.2388E-04   max: -.2595E-03   D at   76  2
       a = 14.000      CL =  2.0925
      Cm = -0.1684     CD =  0.05429   =>   CDf =  0.00569    CDp =  0.04860

 Point added to stored polar  1
 Point written to save file  000061M0.04.log                                 
 Dump file unspecified or not available
 Calculating wake trajectory ...
 Calculating source influence matrix ...

 Solving BL system ...

 Side 1  free  transition at x/c =  0.3312   61
 Side 2 forced transition at x/c =  1.0001   64

   1   rms: 0.1594E+00   max: 0.7964E+00   D at   78  1   RLX: 0.567
       a = 15.000      CL =  2.0655
      Cm = -0.1663     CD =  0.06503   =>   CDf =  0.00530    CDp =  0.05973

 Side 1  free  transition at x/c =  0.3125   61
 Side 2 forced transition at x/c =  1.0001   63

   2   rms: 0.6448E-01   max: 0.5077E+00   T at    2  1
       a = 15.000      CL =  2.0544
      Cm = -0.1645     CD =  0.07101   =>   CDf =  0.00563    CDp =  0.06538

 Side 1  free  transition at x/c =  0.3016   61
 Side 2 forced transition at x/c =  1.0001   63

   3   rms: 0.2442E-01   max: -.1618E+00   D at   79  1
       a = 15.000      CL =  2.0715
      Cm = -0.1642     CD =  0.06747   =>   CDf =  0.00543    CDp =  0.06204

 Side 1  free  transition at x/c =  0.3027   61
 Side 2 forced transition at x/c =  1.0001   63

   4   rms: 0.3669E-02   max: -.1458E-01   D at   77  2
       a = 15.000      CL =  2.0747
      Cm = -0.1644     CD =  0.06755   =>   CDf =  0.00541    CDp =  0.06213

 Side 1  free  transition at x/c =  0.3025   61
 Side 2 forced transition at x/c =  1.0001   63

   5   rms: 0.2411E-03   max: -.1382E-02   D at   76  2
       a = 15.000      CL =  2.0749
      Cm = -0.1644     CD =  0.06757   =>   CDf =  0.00542    CDp =  0.06215

 Side 1  free  transition at x/c =  0.3025   61
 Side 2 forced transition at x/c =  1.0001   63

   6   rms: 0.1229E-04   max: -.7385E-04   D at   77  2
       a = 15.000      CL =  2.0749
      Cm = -0.1644     CD =  0.06757   =>   CDf =  0.00542    CDp =  0.06215

 Point added to stored polar  1
 Point written to save file  000061M0.04.log                                 
 Dump file unspecified or not available

.OPERva   c>  
 XFOIL   c>  
0.1
resp: 
 ===================================================
  XFOIL Version 6.97
  Copyright (C) 2000   Mark Drela, Harold Youngren

  This software comes with ABSOLUTELY NO WARRANTY,
    subject to the GNU General Public License.

  Caveat computor
 ===================================================

 File  xfoil.def  not found

   QUIT    Exit program

  .OPER    Direct operating point(s)
  .MDES    Complex mapping design routine
  .QDES    Surface speed design routine
  .GDES    Geometry design routine

   SAVE f  Write airfoil to labeled coordinate file
   PSAV f  Write airfoil to plain coordinate file
   ISAV f  Write airfoil to ISES coordinate file
   MSAV f  Write airfoil to MSES coordinate file
   REVE    Reverse written-airfoil node ordering
   DELI i  Change written-airfoil file delimiters

   LOAD f  Read buffer airfoil from coordinate file
   NACA i  Set NACA 4,5-digit airfoil and buffer airfoil
   INTE    Set buffer airfoil by interpolating two airfoils
   NORM    Buffer airfoil normalization toggle
   HALF    Halve the number of points in buffer airfoil
   XYCM rr Change CM reference location, currently  0.25000 0.00000

   BEND    Display structural properties of current airfoil

   PCOP    Set current-airfoil panel nodes directly from buffer airfoil points
   PANE    Set current-airfoil panel nodes ( 160 ) based on curvature
  .PPAR    Show/change paneling

  .PLOP    Plotting options

   WDEF f  Write  current-settings file
   RDEF f  Reread current-settings file
   NAME s  Specify new airfoil name
   NINC    Increment name version number

   Z       Zoom    | (available in all menus)
   U       Unzoom  | 

 XFOIL   c>   ...............................................

  G raphics-enable flag:        T
  S ize of plot object          10.00"
  A spect ratio of plot object   0.5500
  P age dimensions              11.00 x  8.50"
  M argins from page edges       0.00",  0.00"
  F ont size (relative)          0.0150
  W indow/screen size fraction   0.8000
  B lowup input method:        Cursor    
  O rientation of plot:        Landscape 
  C olor PostScript output?     F

      Option, Value   (or <Return>)    c>   ...............................................

  G raphics-enable flag:        F
  S ize of plot object          10.00"
  A spect ratio of plot object   0.5500
  P age dimensions              11.00 x  8.50"
  M argins from page edges       0.00",  0.00"
  F ont size (relative)          0.0150
  W indow/screen size fraction   0.8000
  B lowup input method:        Cursor    
  O rientation of plot:        Landscape 
  C olor PostScript output?     F

      Option, Value   (or <Return>)    c>  
 XFOIL   c>  
 Labeled airfoil file.  Name:  000061                                          

 Number of input coordinate points: 200
 Clockwise ordering
 Max thickness =     0.148438  at x =   0.206
 Max camber    =     0.105529  at x =   0.437

  LE  x,y  =  -0.00003   0.00124  |   Chord =   0.99990
  TE  x,y  =   0.99988   0.00004  |

 Current airfoil nodes set from buffer airfoil nodes ( 200 )

 XFOIL   c>  
 You are working with the buffer airfoil

.GDES   c>  
  i       x        y      angle
   2   0.9990   0.0003   -0.002
   3   0.9978   0.0006   -0.093
   4   0.9961   0.0011   -0.073
   5   0.9938   0.0018   -0.097
   6   0.9911   0.0026   -0.122
   7   0.9880   0.0035   -0.158
   8   0.9843   0.0046   -0.138
   9   0.9801   0.0059   -0.183
  10   0.9755   0.0073   -0.165
  11   0.9704   0.0089   -0.198
  12   0.9649   0.0106   -0.199
  13   0.9589   0.0126   -0.204
  14   0.9524   0.0146   -0.209
  15   0.9455   0.0169   -0.197
  16   0.9382   0.0193   -0.210
  17   0.9304   0.0219   -0.196
  18   0.9222   0.0247   -0.192
  19   0.9135   0.0276   -0.181
  20   0.9045   0.0307   -0.173
  21   0.8951   0.0340   -0.156
  22   0.8853   0.0375   -0.133
  23   0.8751   0.0411   -0.119
  24   0.8645   0.0448   -0.098
  25   0.8536   0.0487   -0.074
  26   0.8423   0.0528   -0.044
  27   0.8307   0.0570   -0.015
  28   0.8187   0.0613    0.009
  29   0.8065   0.0657    0.045
  30   0.7939   0.0702    0.076
  31   0.7810   0.0748    0.114
  32   0.7679   0.0795    0.150
  33   0.7545   0.0842    0.187
  34   0.7409   0.0890    0.229
  35   0.7270   0.0938    0.261
  36   0.7129   0.0986    0.312
  37   0.6986   0.1033    0.350
  38   0.6841   0.1081    0.392
  39   0.6694   0.1128    0.437
  40   0.6545   0.1174    0.478
  41   0.6395   0.1219    0.525
  42   0.6243   0.1263    0.571
  43   0.6091   0.1306    0.607
  44   0.5937   0.1348    0.662
  45   0.5782   0.1388    0.695
  46   0.5627   0.1426    0.741
  47   0.5471   0.1462    0.786
  48   0.5314   0.1495    0.825
  49   0.5157   0.1527    0.865
  50   0.5000   0.1556    0.905
  51   0.4843   0.1583    0.941
  52   0.4686   0.1607    0.976
  53   0.4529   0.1628    1.014
  54   0.4373   0.1646    1.044
  55   0.4218   0.1661    1.078
  56   0.4063   0.1674    1.099
  57   0.3909   0.1683    1.132
  58   0.3757   0.1689    1.156
  59   0.3605   0.1692    1.176
  60   0.3455   0.1692    1.199
  61   0.3306   0.1689    1.214
  62   0.3159   0.1683    1.235
  63   0.3014   0.1674    1.248
  64   0.2871   0.1661    1.264
  65   0.2730   0.1646    1.274
  66   0.2591   0.1628    1.289
  67   0.2455   0.1607    1.298
  68   0.2321   0.1583    1.313
  69   0.2190   0.1557    1.325
  70   0.2061   0.1528    1.335
  71   0.1935   0.1497    1.354
  72   0.1813   0.1463    1.366
  73   0.1693   0.1427    1.392
  74   0.1577   0.1389    1.410
  75   0.1464   0.1349    1.432
  76   0.1355   0.1307    1.467
  77   0.1249   0.1264    1.510
  78   0.1147   0.1218    1.544
  79   0.1049   0.1171    1.604
  80   0.0955   0.1123    1.652
  81   0.0865   0.1074    1.726
  82   0.0778   0.1023    1.803
  83   0.0696   0.0971    1.898
  84   0.0618   0.0918    1.996
  85   0.0545   0.0865    2.112
  86   0.0476   0.0810    2.256
  87   0.0411   0.0755    2.391
  88   0.0351   0.0699    2.569
  89   0.0296   0.0643    2.751
  90   0.0245   0.0586    2.949
  91   0.0199   0.0528    3.169
  92   0.0157   0.0470    3.408
  93   0.0120   0.0412    3.623
  94   0.0089   0.0354    3.888
  95   0.0062   0.0295    4.112
  96   0.0039   0.0236    4.316
  97   0.0022   0.0177    4.520
  98   0.0010   0.0118    4.647
  99   0.0002   0.0059    4.742
 100   0.0000   0.0000    8.971
 101   0.0002  -0.0021   12.678
 102   0.0010  -0.0043   11.465
 103   0.0022  -0.0063    9.953
 104   0.0039  -0.0083    8.423
 105   0.0062  -0.0103    7.108
 106   0.0089  -0.0121    6.018
 107   0.0120  -0.0137    5.122
 108   0.0157  -0.0153    4.438
 109   0.0199  -0.0166    3.838
 110   0.0245  -0.0178    3.388
 111   0.0296  -0.0188    2.992
 112   0.0351  -0.0196    2.656
 113   0.0411  -0.0201    2.383
 114   0.0476  -0.0205    2.121
 115   0.0545  -0.0206    1.921
 116   0.0618  -0.0204    1.712
 117   0.0696  -0.0201    1.539
 118   0.0778  -0.0194    1.374
 119   0.0865  -0.0186    1.230
 120   0.0955  -0.0175    1.096
 121   0.1049  -0.0161    0.958
 122   0.1147  -0.0146    0.841
 123   0.1249  -0.0128    0.728
 124   0.1355  -0.0109    0.617
 125   0.1464  -0.0087    0.528
 126   0.1577  -0.0064    0.414
 127   0.1693  -0.0039    0.330
 128   0.1813  -0.0012    0.248
 129   0.1935   0.0015    0.151
 130   0.2061   0.0044    0.080
 131   0.2190   0.0073    0.001
 132   0.2321   0.0104   -0.071
 133   0.2455   0.0134   -0.146
 134   0.2591   0.0165   -0.211
 135   0.2730   0.0196   -0.269
 136   0.2871   0.0226   -0.336
 137   0.3014   0.0257   -0.387
 138   0.3159   0.0286   -0.446
 139   0.3306   0.0315   -0.490
 140   0.3455   0.0343   -0.540
 141   0.3605   0.0369   -0.583
 142   0.3757   0.0394   -0.619
 143   0.3909   0.0418   -0.659
 144   0.4063   0.0440   -0.681
 145   0.4218   0.0460   -0.711
 146   0.4373   0.0479   -0.737
 147   0.4529   0.0495   -0.753
 148   0.4686   0.0510   -0.764
 149   0.4843   0.0522   -0.777
 150   0.5000   0.0533   -0.782
 151   0.5157   0.0541   -0.784
 152   0.5314   0.0547   -0.778
 153   0.5471   0.0551   -0.777
 154   0.5627   0.0552   -0.760
 155   0.5782   0.0552   -0.756
 156   0.5937   0.0550   -0.731
 157   0.6091   0.0545   -0.712
 158   0.6243   0.0539   -0.694
 159   0.6395   0.0531   -0.663
 160   0.6545   0.0521   -0.640
 161   0.6694   0.0510   -0.611
 162   0.6841   0.0497   -0.574
 163   0.6986   0.0483   -0.546
 164   0.7129   0.0468   -0.515
 165   0.7270   0.0452   -0.475
 166   0.7409   0.0435   -0.444
 167   0.7545   0.0417   -0.408
 168   0.7679   0.0398   -0.374
 169   0.7810   0.0379   -0.338
 170   0.7939   0.0360   -0.303
 171   0.8065   0.0340   -0.271
 172   0.8187   0.0320   -0.237
 173   0.8307   0.0300   -0.207
 174   0.8423   0.0281   -0.175
 175   0.8536   0.0261   -0.143
 176   0.8645   0.0242   -0.121
 177   0.8751   0.0223   -0.092
 178   0.8853   0.0205   -0.074
 179   0.8951   0.0187   -0.045
 180   0.9045   0.0170   -0.020
 181   0.9135   0.0154   -0.014
 182   0.9222   0.0138    0.007
 183   0.9304   0.0123    0.026
 184   0.9382   0.0109    0.035
 185   0.9455   0.0095    0.045
 186   0.9524   0.0083    0.055
 187   0.9589   0.0071    0.047
 188   0.9649   0.0061    0.072
 189   0.9704   0.0051    0.065
 190   0.9755   0.0042    0.067
 191   0.9801   0.0034    0.057
 192   0.9843   0.0027    0.075
 193   0.9880   0.0020    0.041
 194   0.9911   0.0015    0.056
 195   0.9938   0.0010    0.026
 196   0.9961   0.0007    0.062
 197   0.9978   0.0004    0.043
 198   0.9990   0.0002   -0.050
 199   0.9998   0.0000    0.163

 Maximum panel corner angle = 12.678   at  i,x,y  = 101   0.0002  -0.0021

 Enter corner angle criterion for refinement (deg):   6.339
 Enter type of spline parameter (1=uniform, 2=arclength):   1
 Enter refinement x limits:  -0.10000   1.10000
 Number of points added:           12
 Max thickness =     0.148391  at x =   0.206
 Max camber    =     0.106293  at x =   0.437

 Maximum panel corner angle =  7.747   at  i,x,y  = 103   0.0001  -0.0016

.GDES   c>  
 Buffer airfoil is not identical to current airfoil

 XFOIL   c>  
 Blunt trailing edge.  Gap =  0.00026

 Paneling parameters used...
   Number of panel nodes       160
   Panel bunching parameter    1.000
   TE/LE panel density ratio   0.150
   Refined-area/LE panel density ratio    0.200
   Top    side refined area x/c limits  1.000 1.000
   Bottom side refined area x/c limits  1.000 1.000

 XFOIL   c>  
.OPERi   c>   Current iteration limit:          20

Enter new iteration limit   i>  
Enter new iteration limit   i>  
Enter new iteration limit   i>  
.OPERi   c>  
 M  =    0.0000
 Re =  0.3000E+06

.OPERv   c>  
 Sonic Cp =    -66.86      Sonic Q/Qinf =     9.138


.OPERv   c>  
 Polar  1 newly created for accumulation
 Airfoil archived with polar: 000061                                          

Enter  polar save filename  OR  <return> for no file   s>  
 New polar save file available

Enter  polar dump filename  OR  <return> for no file   s>  
 Polar dump file will NOT be written

 Polar accumulation enabled

.OPERva   c>   Calculating unit vorticity distributions ...
 Calculating wake trajectory ...
 Calculating source influence matrix ...

 Solving BL system ...

 Initializing BL ...
    side            1  ...
 MRCHUE: Inverse mode at  54     Hk =   4.074
 MRCHUE: Inverse mode at  55     Hk =   4.864
 MRCHUE: Inverse mode at  56     Hk =   5.637
 MRCHUE: Inverse mode at  57     Hk =   6.400
 MRCHUE: Inverse mode at  58     Hk =   7.154
 MRCHUE: Inverse mode at  59     Hk =   7.905
 MRCHUE: Inverse mode at  60     Hk =   8.653
 MRCHUE: Inverse mode at  61     Hk =   9.387
 MRCHUE: Inverse mode at  62     Hk =   5.655
 MRCHUE: Inverse mode at  63     Hk =   3.924
 MRCHUE: Inverse mode at  64     Hk =   2.747
 MRCHUE: Convergence failed at  86  side 1    Res =  0.3812E+01
    side            2  ...
 MRCHUE: Inverse mode at  30     Hk =   4.394
 MRCHUE: Inverse mode at  31     Hk =   5.192
 MRCHUE: Inverse mode at  32     Hk =   6.015
 MRCHUE: Inverse mode at  33     Hk =   6.863
 MRCHUE: Inverse mode at  34     Hk =   7.733
 MRCHUE: Inverse mode at  35     Hk =   8.615
 MRCHUE: Inverse mode at  36     Hk =   9.495
 MRCHUE: Inverse mode at  37     Hk =   6.387
 MRCHUE: Inverse mode at  38     Hk =   3.962
 MRCHUE: Inverse mode at  39     Hk =   2.500
 MRCHUE: Convergence failed at  76  side 2    Res =  0.1926E+01

 MRCHDU: Convergence failed at  86  side 1    Res =  0.4223E+01
 Side 1  free  transition at x/c =  0.5402   61
 Side 2  free  transition at x/c =  0.2493   37

   1   rms: 0.3207E+00   max: 0.1261E+01   D at   78  2   RLX: 0.424
       a =  2.000      CL =  1.3715
      Cm = -0.2218     CD =  0.01127   =>   CDf =  0.00776    CDp =  0.00351

 MRCHDU: Convergence failed at  63  side 1    Res =  0.4891E+01
 MRCHDU: Convergence failed at  64  side 1    Res =  0.1176E+02
 MRCHDU: Convergence failed at  65  side 1    Res =  0.4879E+01
 MRCHDU: Convergence failed at  66  side 1    Res =  0.6890E+01
 MRCHDU: Convergence failed at  67  side 1    Res =  0.1048E+02
 MRCHDU: Convergence failed at  68  side 1    Res =  0.1468E+02
 MRCHDU: Convergence failed at  69  side 1    Res =  0.1772E+02
 MRCHDU: Convergence failed at  70  side 1    Res =  0.1850E+02
 MRCHDU: Convergence failed at  71  side 1    Res =  0.1726E+02
 MRCHDU: Convergence failed at  72  side 1    Res =  0.1561E+02
 MRCHDU: Convergence failed at  73  side 1    Res =  0.1411E+02
 MRCHDU: Convergence failed at  74  side 1    Res =  0.8911E+01
 MRCHDU: Convergence failed at  75  side 1    Res =  0.1088E+02
 MRCHDU: Convergence failed at  76  side 1    Res =  0.1342E+02
 MRCHDU: Convergence failed at  77  side 1    Res =  0.1632E+02
 MRCHDU: Convergence failed at  78  side 1    Res =  0.2046E+02
 MRCHDU: Convergence failed at  79  side 1    Res =  0.2646E+02
 MRCHDU: Convergence failed at  80  side 1    Res =  0.3711E+02
 MRCHDU: Convergence failed at  81  side 1    Res =  0.5485E+02
 MRCHDU: Convergence failed at  82  side 1    Res =  0.9610E+02
 MRCHDU: Convergence failed at  83  side 1    Res =  0.4020E+04
 MRCHDU: Convergence failed at  84  side 1    Res =  0.8407E+02
 MRCHDU: Convergence failed at  85  side 1    Res =  0.4221E+02
 MRCHDU: Convergence failed at  86  side 1    Res =  0.3941E+02
 Side 1  free  transition at x/c =  0.5598   63
 Side 2  free  transition at x/c =  0.2478   37

   2   rms: 0.7088E+00   max: 0.2866E+01   D at   78  2   RLX: 0.467
       a =  2.000      CL =  1.5667
      Cm = -0.3534     CD =  0.00483   =>   CDf =  0.00622    CDp = -0.00139

 Side 1  free  transition at x/c =  0.5474   61
 Side 2  free  transition at x/c =  0.2438   37

   3   rms: 0.2351E+00   max: 0.5099E+00   D at   85  2   RLX: 0.614
       a =  2.000      CL =  1.3469
      Cm = -0.2391     CD =  0.01332   =>   CDf =  0.00764    CDp =  0.00568

 Side 1  free  transition at x/c =  0.5545   61
 Side 2  free  transition at x/c =  0.2381   37

   4   rms: 0.1151E+00   max: 0.5999E+00   D at   78  2
       a =  2.000      CL =  1.3380
      Cm = -0.2172     CD =  0.01480   =>   CDf =  0.00804    CDp =  0.00676

 Side 1  free  transition at x/c =  0.5549   62
 Side 2  free  transition at x/c =  0.2433   36

   5   rms: 0.8180E+00   max: 0.1467E+02   T at    2  1   RLX: 0.087
       a =  2.000      CL =  1.3364
      Cm = -0.2170     CD =  0.01579   =>   CDf =  0.00786    CDp =  0.00793

 Side 1  free  transition at x/c =  0.5548   61
 Side 2  free  transition at x/c =  0.2431   37

   6   rms: 0.1170E+03   max: 0.2067E+04   T at    2  2   RLX: 0.001
       a =  2.000      CL =  1.3364
      Cm = -0.2170     CD =  0.01579   =>   CDf =  0.00769    CDp =  0.00810

 Side 1  free  transition at x/c =  0.5548   61
 Side 2  free  transition at x/c =  0.2430   37

   7   rms: 0.2974E-01   max: -.2732E+00   D at   85  1
       a =  2.000      CL =  1.3092
      Cm = -0.2116     CD =  0.01647   =>   CDf =  0.00769    CDp =  0.00878

 Side 1  free  transition at x/c =  0.5543   61
 Side 2  free  transition at x/c =  0.2399   37

   8   rms: 0.7427E-02   max: -.9116E-01   D at   85  1
       a =  2.000      CL =  1.3040
      Cm = -0.2105     CD =  0.01645   =>   CDf =  0.00765    CDp =  0.00880

 Side 1  free  transition at x/c =  0.5544   61
 Side 2  free  transition at x/c =  0.2391   37

   9   rms: 0.6454E-03   max: -.8105E-02   D at   85  1
       a =  2.000      CL =  1.3036
      Cm = -0.2104     CD =  0.01645   =>   CDf =  0.00765    CDp =  0.00880

 Side 1  free  transition at x/c =  0.5544   61
 Side 2  free  transition at x/c =  0.2391   37

  10   rms: 0.4508E-05   max: -.5784E-04   D at   85  1
       a =  2.000      CL =  1.3036
      Cm = -0.2104     CD =  0.01645   =>   CDf =  0.00765    CDp =  0.00880

 Point added to stored polar  1
 Point written to save file  000061M0.1.log                                  
 Dump file unspecified or not available
 Calculating wake trajectory ...
 Calculating source influence matrix ...

 Solving BL system ...

 Side 1  free  transition at x/c =  0.5544   61
 Side 2  free  transition at x/c =  0.2391   37

   1   rms: 0.1564E+00   max: -.1091E+01   T at   37  2   RLX: 0.458
       a =  3.000      CL =  1.3528
      Cm = -0.2102     CD =  0.01672   =>   CDf =  0.00747    CDp =  0.00925

 Side 1  free  transition at x/c =  0.5463   62
 Side 2  free  transition at x/c =  0.2597   37

   2   rms: 0.9424E-01   max: 0.7236E+00   D at   37  2
       a =  3.000      CL =  1.4158
      Cm = -0.2105     CD =  0.01678   =>   CDf =  0.00741    CDp =  0.00937

 Side 1  free  transition at x/c =  0.5399   62
 Side 2  free  transition at x/c =  0.2791   37

   3   rms: 0.2595E-01   max: 0.3446E+00   D at   37  2
       a =  3.000      CL =  1.4164
      Cm = -0.2106     CD =  0.01688   =>   CDf =  0.00769    CDp =  0.00919

 Side 1  free  transition at x/c =  0.5399   62
 Side 2  free  transition at x/c =  0.2785   37

   4   rms: 0.3246E-02   max: 0.2951E-01   D at   38  2
       a =  3.000      CL =  1.4164
      Cm = -0.2106     CD =  0.01691   =>   CDf =  0.00771    CDp =  0.00919

 Side 1  free  transition at x/c =  0.5399   62
 Side 2  free  transition at x/c =  0.2775   37

   5   rms: 0.5385E-04   max: -.4962E-03   D at   37  2
       a =  3.000      CL =  1.4164
      Cm = -0.2106     CD =  0.01691   =>   CDf =  0.00772    CDp =  0.00919

 Point added to stored polar  1
 Point written to save file  000061M0.1.log                                  
 Dump file unspecified or not available
 Calculating wake trajectory ...
 Calculating source influence matrix ...

 Solving BL system ...

 Side 1  free  transition at x/c =  0.5399   62
 Side 2  free  transition at x/c =  0.2775   37

   1   rms: 0.1549E+00   max: -.1039E+01   T at   37  2   RLX: 0.481
       a =  4.000      CL =  1.4639
      Cm = -0.2099     CD =  0.01725   =>   CDf =  0.00773    CDp =  0.00952

 Side 1  free  transition at x/c =  0.5315   62
 Side 2  free  transition at x/c =  0.3002   38

   2   rms: 0.8280E-01   max: 0.5736E+00   D at   38  2
       a =  4.000      CL =  1.5225
      Cm = -0.2101     CD =  0.01746   =>   CDf =  0.00733    CDp =  0.01013

 Side 1  free  transition at x/c =  0.5242   63
 Side 2  free  transition at x/c =  0.3214   38

   3   rms: 0.1487E-01   max: -.1542E+00   D at   38  2
       a =  4.000      CL =  1.5236
      Cm = -0.2103     CD =  0.01746   =>   CDf =  0.00765    CDp =  0.00981

 Side 1  free  transition at x/c =  0.5248   63
 Side 2  free  transition at x/c =  0.3216   38

   4   rms: 0.1328E-02   max: 0.1485E-01   D at   39  2
       a =  4.000      CL =  1.5236
      Cm = -0.2103     CD =  0.01746   =>   CDf =  0.00760    CDp =  0.00987

 Side 1  free  transition at x/c =  0.5248   63
 Side 2  free  transition at x/c =  0.3214   38

   5   rms: 0.5601E-05   max: 0.3980E-04   T at   38  2
       a =  4.000      CL =  1.5236
      Cm = -0.2103     CD =  0.01746   =>   CDf =  0.00760    CDp =  0.00987

 Point added to stored polar  1
 Point written to save file  000061M0.1.log                                  
 Dump file unspecified or not available
 Calculating wake trajectory ...
 Calculating source influence matrix ...

 Solving BL system ...

 Side 1  free  transition at x/c =  0.5248   63
 Side 2  free  transition at x/c =  0.3214   38

   1   rms: 0.1665E+00   max: -.1240E+01   T at   38  2   RLX: 0.403
       a =  5.000      CL =  1.5695
      Cm = -0.2105     CD =  0.01779   =>   CDf =  0.00761    CDp =  0.01018

 MRCHDU: Convergence failed at  40  side 2    Res =  0.2634E+02
 MRCHDU: Convergence failed at  41  side 2    Res =  0.4143E+01
 MRCHDU: Convergence failed at  42  side 2    Res =  0.1548E+02
 MRCHDU: Convergence failed at  43  side 2    Res =  0.2260E+03
 MRCHDU: Convergence failed at  44  side 2    Res =  0.3402E+02
 MRCHDU: Convergence failed at  45  side 2    Res =  0.2679E+02
 MRCHDU: Convergence failed at  46  side 2    Res =  0.2653E+02
 MRCHDU: Convergence failed at  47  side 2    Res =  0.2920E+02
 MRCHDU: Convergence failed at  48  side 2    Res =  0.3349E+02
 MRCHDU: Convergence failed at  49  side 2    Res =  0.4077E+02
 MRCHDU: Convergence failed at  50  side 2    Res =  0.5489E+02
 MRCHDU: Convergence failed at  51  side 2    Res =  0.9557E+02
 MRCHDU: Convergence failed at  52  side 2    Res =  0.5593E+03
 MRCHDU: Convergence failed at  53  side 2    Res =  0.1045E+03
 MRCHDU: Convergence failed at  54  side 2    Res =  0.3995E+02
 MRCHDU: Convergence failed at  55  side 2    Res =  0.2144E+02
 MRCHDU: Convergence failed at  56  side 2    Res =  0.1308E+02
 MRCHDU: Convergence failed at  57  side 2    Res =  0.7684E+01
 MRCHDU: Convergence failed at  58  side 2    Res =  0.5110E+01
 MRCHDU: Convergence failed at  59  side 2    Res =  0.3497E+01
 MRCHDU: Convergence failed at  60  side 2    Res =  0.2459E+01
 Side 1  free  transition at x/c =  0.5201   62
 Side 2  free  transition at x/c =  0.3480   40

   2   rms: 0.2477E+00   max: -.1292E+01   D at   58  2   RLX: 0.387
       a =  5.000      CL =  1.5661
      Cm = -0.2032     CD =  0.01742   =>   CDf =  0.00647    CDp =  0.01094

 Side 1  free  transition at x/c =  0.5153   62
 Side 2  free  transition at x/c =  0.3620   41

   3   rms: 0.8949E-01   max: -.4838E+00   D at   42  2
       a =  5.000      CL =  1.6262
      Cm = -0.2095     CD =  0.01817   =>   CDf =  0.00744    CDp =  0.01073

 Side 1  free  transition at x/c =  0.5086   63
 Side 2  free  transition at x/c =  0.3741   40

   4   rms: 0.2674E-01   max: -.2778E+00   D at   40  2
       a =  5.000      CL =  1.6282
      Cm = -0.2097     CD =  0.01821   =>   CDf =  0.00746    CDp =  0.01075

 Side 1  free  transition at x/c =  0.5093   63
 Side 2  free  transition at x/c =  0.3760   40

   5   rms: 0.2479E-02   max: 0.2131E-01   D at   41  2
       a =  5.000      CL =  1.6281
      Cm = -0.2097     CD =  0.01822   =>   CDf =  0.00740    CDp =  0.01082

 Side 1  free  transition at x/c =  0.5093   63
 Side 2  free  transition at x/c =  0.3751   40

   6   rms: 0.3451E-04   max: -.3903E-03   D at   40  2
       a =  5.000      CL =  1.6281
      Cm = -0.2097     CD =  0.01822   =>   CDf =  0.00740    CDp =  0.01082

 Point added to stored polar  1
 Point written to save file  000061M0.1.log                                  
 Dump file unspecified or not available
 Calculating wake trajectory ...
 Calculating source influence matrix ...

 Solving BL system ...

 Side 1  free  transition at x/c =  0.5093   63
 Side 2  free  transition at x/c =  0.3751   40

   1   rms: 0.1605E+00   max: -.1121E+01   T at   40  2   RLX: 0.446
       a =  6.000      CL =  1.6759
      Cm = -0.2096     CD =  0.01850   =>   CDf =  0.00742    CDp =  0.01109

 Side 1  free  transition at x/c =  0.5032   62
 Side 2  free  transition at x/c =  0.4081   42

   2   rms: 0.9946E-01   max: 0.6972E+00   D at   42  2   RLX: 0.795
       a =  6.000      CL =  1.7132
      Cm = -0.2083     CD =  0.01909   =>   CDf =  0.00717    CDp =  0.01191

 Side 1  free  transition at x/c =  0.4947   63
 Side 2  free  transition at x/c =  0.4291   42

   3   rms: 0.4596E-01   max: -.3995E+00   T at   42  2
       a =  6.000      CL =  1.7292
      Cm = -0.2088     CD =  0.01913   =>   CDf =  0.00727    CDp =  0.01185

 Side 1  free  transition at x/c =  0.4936   63
 Side 2  free  transition at x/c =  0.4568   44

   4   rms: 0.1168E-01   max: -.1615E+00   D at   43  2
       a =  6.000      CL =  1.7292
      Cm = -0.2088     CD =  0.01911   =>   CDf =  0.00719    CDp =  0.01192

 Side 1  free  transition at x/c =  0.4936   63
 Side 2  free  transition at x/c =  0.4576   44

   5   rms: 0.3246E-02   max: 0.4499E-01   C at   44  2
       a =  6.000      CL =  1.7292
      Cm = -0.2088     CD =  0.01911   =>   CDf =  0.00714    CDp =  0.01197

 Side 1  free  transition at x/c =  0.4936   63
 Side 2  free  transition at x/c =  0.4564   43

   6   rms: 0.2423E-03   max: -.3054E-02   C at   43  2
       a =  6.000      CL =  1.7292
      Cm = -0.2088     CD =  0.01911   =>   CDf =  0.00715    CDp =  0.01196

 Side 1  free  transition at x/c =  0.4936   63
 Side 2  free  transition at x/c =  0.4563   43

   7   rms: 0.1053E-05   max: 0.8867E-05   D at   45  2
       a =  6.000      CL =  1.7292
      Cm = -0.2088     CD =  0.01911   =>   CDf =  0.00715    CDp =  0.01196

 Point added to stored polar  1
 Point written to save file  000061M0.1.log                                  
 Dump file unspecified or not available
 Calculating wake trajectory ...
 Calculating source influence matrix ...

 Solving BL system ...

 Side 1  free  transition at x/c =  0.4936   63
 Side 2  free  transition at x/c =  0.4563   43

   1   rms: 0.1637E+00   max: -.1073E+01   T at   43  2   RLX: 0.466
       a =  7.000      CL =  1.7763
      Cm = -0.2084     CD =  0.01949   =>   CDf =  0.00717    CDp =  0.01232

 Side 1  free  transition at x/c =  0.4862   62
 Side 2  free  transition at x/c =  0.5293   47

   2   rms: 0.1055E+00   max: -.9811E+00   T at   47  2   RLX: 0.510
       a =  7.000      CL =  1.7980
      Cm = -0.2073     CD =  0.02007   =>   CDf =  0.00692    CDp =  0.01315

 Side 1  free  transition at x/c =  0.4817   63
 Side 2 forced transition at x/c =  1.0001   71

   3   rms: 0.6434E-01   max: 0.5238E+00   D at   46  2
       a =  7.000      CL =  1.8214
      Cm = -0.2066     CD =  0.01975   =>   CDf =  0.00654    CDp =  0.01321

 Side 1  free  transition at x/c =  0.4773   63
 Side 2 forced transition at x/c =  1.0001   71

   4   rms: 0.9433E-02   max: 0.5521E-01   D at   43  2
       a =  7.000      CL =  1.8220
      Cm = -0.2066     CD =  0.01973   =>   CDf =  0.00654    CDp =  0.01319

 Side 1  free  transition at x/c =  0.4775   63
 Side 2 forced transition at x/c =  1.0001   71

   5   rms: 0.6635E-03   max: 0.4481E-02   D at   42  2
       a =  7.000      CL =  1.8220
      Cm = -0.2066     CD =  0.01973   =>   CDf =  0.00652    CDp =  0.01321

 Side 1  free  transition at x/c =  0.4775   63
 Side 2 forced transition at x/c =  1.0001   71

   6   rms: 0.4356E-05   max: 0.3026E-04   D at   42  2
       a =  7.000      CL =  1.8220
      Cm = -0.2066     CD =  0.01973   =>   CDf =  0.00652    CDp =  0.01321

 Point added to stored polar  1
 Point written to save file  000061M0.1.log                                  
 Dump file unspecified or not available
 Calculating wake trajectory ...
 Calculating source influence matrix ...

 Solving BL system ...

 Side 1  free  transition at x/c =  0.4775   63
 Side 2 forced transition at x/c =  1.0001   71

   1   rms: 0.1567E+00   max: -.3667E+00   n at   52  2
       a =  8.000      CL =  1.9121
      Cm = -0.2043     CD =  0.02103   =>   CDf =  0.00626    CDp =  0.01477

 Side 1  free  transition at x/c =  0.4613   63
 Side 2 forced transition at x/c =  1.0001   70

   2   rms: 0.2978E-01   max: -.2229E+00   D at   63  1
       a =  8.000      CL =  1.9064
      Cm = -0.2034     CD =  0.02123   =>   CDf =  0.00659    CDp =  0.01465

 Side 1  free  transition at x/c =  0.4609   63
 Side 2 forced transition at x/c =  1.0001   70

   3   rms: 0.1733E-02   max: -.1057E-01   D at   65  1
       a =  8.000      CL =  1.9072
      Cm = -0.2036     CD =  0.02130   =>   CDf =  0.00651    CDp =  0.01480

 Side 1  free  transition at x/c =  0.4606   63
 Side 2 forced transition at x/c =  1.0001   70

   4   rms: 0.3066E-04   max: 0.1416E-03   D at   77  2
       a =  8.000      CL =  1.9072
      Cm = -0.2036     CD =  0.02131   =>   CDf =  0.00651    CDp =  0.01479

 Point added to stored polar  1
 Point written to save file  000061M0.1.log                                  
 Dump file unspecified or not available
 Calculating wake trajectory ...
 Calculating source influence matrix ...

 Solving BL system ...

 Side 1  free  transition at x/c =  0.4606   63
 Side 2 forced transition at x/c =  1.0001   70

   1   rms: 0.1339E+00   max: 0.1932E+00   D at   76  2
       a =  9.000      CL =  1.9813
      Cm = -0.1992     CD =  0.02308   =>   CDf =  0.00623    CDp =  0.01685

 Side 1  free  transition at x/c =  0.4430   63
 Side 2 forced transition at x/c =  1.0001   69

   2   rms: 0.2823E-01   max: -.2442E+00   D at   63  1
       a =  9.000      CL =  1.9709
      Cm = -0.1977     CD =  0.02334   =>   CDf =  0.00650    CDp =  0.01684

 Side 1  free  transition at x/c =  0.4433   63
 Side 2 forced transition at x/c =  1.0001   69

   3   rms: 0.1760E-02   max: -.1250E-01   D at   65  1
       a =  9.000      CL =  1.9720
      Cm = -0.1979     CD =  0.02344   =>   CDf =  0.00642    CDp =  0.01702

 Side 1  free  transition at x/c =  0.4428   63
 Side 2 forced transition at x/c =  1.0001   69

   4   rms: 0.3520E-04   max: -.2028E-03   D at   65  1
       a =  9.000      CL =  1.9720
      Cm = -0.1979     CD =  0.02344   =>   CDf =  0.00643    CDp =  0.01701

 Point added to stored polar  1
 Point written to save file  000061M0.1.log                                  
 Dump file unspecified or not available
 Calculating wake trajectory ...
 Calculating source influence matrix ...

 Solving BL system ...

 Side 1  free  transition at x/c =  0.4428   63
 Side 2 forced transition at x/c =  1.0001   69

   1   rms: 0.1255E+00   max: 0.4358E+00   T at   63  1
       a = 10.000      CL =  2.0203
      Cm = -0.1907     CD =  0.02624   =>   CDf =  0.00612    CDp =  0.02012

 Side 1  free  transition at x/c =  0.4246   63
 Side 2 forced transition at x/c =  1.0001   68

   2   rms: 0.3381E-01   max: -.2631E+00   D at   63  1
       a = 10.000      CL =  2.0191
      Cm = -0.1911     CD =  0.02655   =>   CDf =  0.00636    CDp =  0.02019

 Side 1  free  transition at x/c =  0.4243   63
 Side 2 forced transition at x/c =  1.0001   68

   3   rms: 0.2897E-02   max: -.1613E-01   D at   65  1
       a = 10.000      CL =  2.0208
      Cm = -0.1914     CD =  0.02668   =>   CDf =  0.00628    CDp =  0.02040

 Side 1  free  transition at x/c =  0.4238   63
 Side 2 forced transition at x/c =  1.0001   68

   4   rms: 0.6867E-04   max: -.3576E-03   D at   74  2
       a = 10.000      CL =  2.0208
      Cm = -0.1914     CD =  0.02669   =>   CDf =  0.00629    CDp =  0.02040

 Point added to stored polar  1
 Point written to save file  000061M0.1.log                                  
 Dump file unspecified or not available
 Calculating wake trajectory ...
 Calculating source influence matrix ...

 Solving BL system ...

 Side 1  free  transition at x/c =  0.4238   63
 Side 2 forced transition at x/c =  1.0001   68

   1   rms: 0.1261E+00   max: 0.4719E+00   T at   63  1
       a = 11.000      CL =  2.0635
      Cm = -0.1851     CD =  0.03063   =>   CDf =  0.00565    CDp =  0.02498

 Side 1  free  transition at x/c =  0.4047   64
 Side 2 forced transition at x/c =  1.0001   66

   2   rms: 0.3693E-01   max: -.3132E+00   D at   64  1
       a = 11.000      CL =  2.0581
      Cm = -0.1849     CD =  0.03100   =>   CDf =  0.00653    CDp =  0.02447

 Side 1  free  transition at x/c =  0.4040   63
 Side 2 forced transition at x/c =  1.0001   67

   3   rms: 0.5823E-02   max: 0.7417E-01   D at    2  2
       a = 11.000      CL =  2.0597
      Cm = -0.1852     CD =  0.03119   =>   CDf =  0.00613    CDp =  0.02506

 Side 1  free  transition at x/c =  0.4035   63
 Side 2 forced transition at x/c =  1.0001   67

   4   rms: 0.1070E-02   max: 0.1328E-01   D at    4  2
       a = 11.000      CL =  2.0599
      Cm = -0.1852     CD =  0.03119   =>   CDf =  0.00577    CDp =  0.02542

 Side 1  free  transition at x/c =  0.4035   64
 Side 2 forced transition at x/c =  1.0001   66

   5   rms: 0.4628E-02   max: 0.9250E-01   T at    2  1
       a = 11.000      CL =  2.0599
      Cm = -0.1852     CD =  0.03119   =>   CDf =  0.00614    CDp =  0.02505

 Side 1  free  transition at x/c =  0.4035   64
 Side 2 forced transition at x/c =  1.0001   66

   6   rms: 0.1596E-02   max: -.3222E-01   D at    2  1
       a = 11.000      CL =  2.0599
      Cm = -0.1852     CD =  0.03119   =>   CDf =  0.00614    CDp =  0.02505

 Side 1  free  transition at x/c =  0.4035   64
 Side 2 forced transition at x/c =  1.0001   66

   7   rms: 0.4317E-03   max: -.9881E-02   T at    2  1
       a = 11.000      CL =  2.0599
      Cm = -0.1852     CD =  0.03119   =>   CDf =  0.00614    CDp =  0.02505

 Side 1  free  transition at x/c =  0.4035   64
 Side 2 forced transition at x/c =  1.0001   66

   8   rms: 0.2085E-03   max: 0.5174E-02   D at    2  1
       a = 11.000      CL =  2.0599
      Cm = -0.1852     CD =  0.03119   =>   CDf =  0.00614    CDp =  0.02505

 Side 1  free  transition at x/c =  0.4035   64
 Side 2 forced transition at x/c =  1.0001   66

   9   rms: 0.1870E-03   max: 0.4787E-02   D at    2  1
       a = 11.000      CL =  2.0599
      Cm = -0.1852     CD =  0.03119   =>   CDf =  0.00614    CDp =  0.02505

 Side 1  free  transition at x/c =  0.4035   64
 Side 2 forced transition at x/c =  1.0001   66

  10   rms: 0.7078E-03   max: -.1818E-01   D at    2  1
       a = 11.000      CL =  2.0599
      Cm = -0.1852     CD =  0.03119   =>   CDf =  0.00614    CDp =  0.02505

 Side 1  free  transition at x/c =  0.4035   64
 Side 2 forced transition at x/c =  1.0001   66

  11   rms: 0.4044E-02   max: 0.7167E-01   T at    2  1
       a = 11.000      CL =  2.0599
      Cm = -0.1852     CD =  0.03119   =>   CDf =  0.00614    CDp =  0.02505

 Side 1  free  transition at x/c =  0.4035   64
 Side 2 forced transition at x/c =  1.0001   66

  12   rms: 0.1906E-03   max: 0.3222E-02   T at    2  1
       a = 11.000      CL =  2.0599
      Cm = -0.1852     CD =  0.03119   =>   CDf =  0.00614    CDp =  0.02505

 Side 1  free  transition at x/c =  0.4035   64
 Side 2 forced transition at x/c =  1.0001   66

  13   rms: 0.5534E-02   max: -.9942E-01   T at    2  1
       a = 11.000      CL =  2.0599
      Cm = -0.1852     CD =  0.03119   =>   CDf =  0.00651    CDp =  0.02468

 Side 1  free  transition at x/c =  0.4035   63
 Side 2 forced transition at x/c =  1.0001   67

  14   rms: 0.6677E-03   max: 0.1218E-01   T at    2  2
       a = 11.000      CL =  2.0599
      Cm = -0.1852     CD =  0.03119   =>   CDf =  0.00615    CDp =  0.02505

 Side 1  free  transition at x/c =  0.4035   63
 Side 2 forced transition at x/c =  1.0001   67

  15   rms: 0.7191E-03   max: 0.8026E-02   D at    2  2
       a = 11.000      CL =  2.0599
      Cm = -0.1852     CD =  0.03119   =>   CDf =  0.00615    CDp =  0.02505

 Side 1  free  transition at x/c =  0.4035   63
 Side 2 forced transition at x/c =  1.0001   67

  16   rms: 0.2059E-02   max: -.3899E-01   T at    2  2
       a = 11.000      CL =  2.0599
      Cm = -0.1852     CD =  0.03119   =>   CDf =  0.00615    CDp =  0.02505

 Side 1  free  transition at x/c =  0.4035   63
 Side 2 forced transition at x/c =  1.0001   67

  17   rms: 0.8524E-02   max: -.1690E+00   T at    2  2
       a = 11.000      CL =  2.0599
      Cm = -0.1852     CD =  0.03119   =>   CDf =  0.00577    CDp =  0.02542

 Side 1  free  transition at x/c =  0.4035   64
 Side 2 forced transition at x/c =  1.0001   66

  18   rms: 0.2643E-01   max: -.4715E+00   D at    2  1
       a = 11.000      CL =  2.0598
      Cm = -0.1852     CD =  0.03119   =>   CDf =  0.00651    CDp =  0.02468

 Side 1  free  transition at x/c =  0.4035   63
 Side 2 forced transition at x/c =  1.0001   67

  19   rms: 0.4653E-02   max: 0.7489E-01   T at    2  2
       a = 11.000      CL =  2.0599
      Cm = -0.1852     CD =  0.03119   =>   CDf =  0.00615    CDp =  0.02505

 Side 1  free  transition at x/c =  0.4035   63
 Side 2 forced transition at x/c =  1.0001   67

  20   rms: 0.9519E-03   max: 0.1247E-01   D at    4  2
       a = 11.000      CL =  2.0599
      Cm = -0.1852     CD =  0.03119   =>   CDf =  0.00577    CDp =  0.02542

 Side 1  free  transition at x/c =  0.4035   64
 Side 2 forced transition at x/c =  1.0001   66

  21   rms: 0.5865E-02   max: 0.1058E+00   T at    2  1
       a = 11.000      CL =  2.0599
      Cm = -0.1852     CD =  0.03119   =>   CDf =  0.00614    CDp =  0.02505

 Side 1  free  transition at x/c =  0.4035   64
 Side 2 forced transition at x/c =  1.0001   66

  22   rms: 0.1527E-03   max: 0.3967E-02   D at    2  1
       a = 11.000      CL =  2.0599
      Cm = -0.1852     CD =  0.03119   =>   CDf =  0.00614    CDp =  0.02505

 Side 1  free  transition at x/c =  0.4035   64
 Side 2 forced transition at x/c =  1.0001   66

  23   rms: 0.3021E-03   max: -.6337E-02   D at    2  1
       a = 11.000      CL =  2.0599
      Cm = -0.1852     CD =  0.03119   =>   CDf =  0.00614    CDp =  0.02505

 Side 1  free  transition at x/c =  0.4035   64
 Side 2 forced transition at x/c =  1.0001   66

  24   rms: 0.2869E-03   max: -.7514E-02   D at    2  1
       a = 11.000      CL =  2.0599
      Cm = -0.1852     CD =  0.03119   =>   CDf =  0.00614    CDp =  0.02505

 Side 1  free  transition at x/c =  0.4035   64
 Side 2 forced transition at x/c =  1.0001   66

  25   rms: 0.5118E-02   max: 0.9981E-01   D at    2  1
       a = 11.000      CL =  2.0599
      Cm = -0.1852     CD =  0.03119   =>   CDf =  0.00614    CDp =  0.02505
 VISCAL:  Convergence failed
 Calculating wake trajectory ...
 Calculating source influence matrix ...

 Solving BL system ...

 Side 1  free  transition at x/c =  0.4035   64
 Side 2 forced transition at x/c =  1.0001   66

   1   rms: 0.4520E+00   max: -.8615E+01   D at    3  1   RLX: 0.058
       a = 12.000      CL =  2.0631
      Cm = -0.1850     CD =  0.03141   =>   CDf =  0.00616    CDp =  0.02524

 Side 1  free  transition at x/c =  0.4024   64
 Side 2 forced transition at x/c =  1.0001   66

   2   rms: 0.1217E+00   max: -.4081E+00   D at   65  1
       a = 12.000      CL =  2.1294
      Cm = -0.1818     CD =  0.03406   =>   CDf =  0.00580    CDp =  0.02825

 Side 1  free  transition at x/c =  0.3841   64
 Side 2 forced transition at x/c =  1.0001   65

   3   rms: 0.4744E-01   max: -.3809E+00   D at   64  1
       a = 12.000      CL =  2.0921
      Cm = -0.1792     CD =  0.03640   =>   CDf =  0.00599    CDp =  0.03042

 Side 1  free  transition at x/c =  0.3833   64
 Side 2 forced transition at x/c =  1.0001   65

   4   rms: 0.7913E-02   max: -.6164E-01   D at   65  1
       a = 12.000      CL =  2.0949
      Cm = -0.1795     CD =  0.03648   =>   CDf =  0.00600    CDp =  0.03048

 Side 1  free  transition at x/c =  0.3821   64
 Side 2 forced transition at x/c =  1.0001   65

   5   rms: 0.2024E-02   max: -.9274E-02   D at   84  1
       a = 12.000      CL =  2.0963
      Cm = -0.1796     CD =  0.03642   =>   CDf =  0.00607    CDp =  0.03035

 Side 1  free  transition at x/c =  0.3820   63
 Side 2 forced transition at x/c =  1.0001   65

   6   rms: 0.9599E-04   max: 0.5740E-03   D at   83  1
       a = 12.000      CL =  2.0963
      Cm = -0.1796     CD =  0.03643   =>   CDf =  0.00608    CDp =  0.03035

 Point added to stored polar  1
 Point written to save file  000061M0.1.log                                  
 Dump file unspecified or not available
 Calculating wake trajectory ...
 Calculating source influence matrix ...

 Solving BL system ...

 Side 1  free  transition at x/c =  0.3820   63
 Side 2 forced transition at x/c =  1.0001   65

   1   rms: 0.1866E+00   max: 0.8560E+00   D at   82  1   RLX: 0.722
       a = 13.000      CL =  2.0495
      Cm = -0.1723     CD =  0.04704   =>   CDf =  0.00610    CDp =  0.04094

 Side 1  free  transition at x/c =  0.3628   62
 Side 2 forced transition at x/c =  1.0001   65

   2   rms: 0.4990E-01   max: -.2837E+00   D at   63  1
       a = 13.000      CL =  2.0720
      Cm = -0.1717     CD =  0.04738   =>   CDf =  0.00592    CDp =  0.04145

 Side 1  free  transition at x/c =  0.3574   62
 Side 2 forced transition at x/c =  1.0001   65

   3   rms: 0.2204E-01   max: -.1057E+00   D at   82  1
       a = 13.000      CL =  2.0893
      Cm = -0.1726     CD =  0.04581   =>   CDf =  0.00570    CDp =  0.04011

 Side 1  free  transition at x/c =  0.3573   62
 Side 2 forced transition at x/c =  1.0001   65

   4   rms: 0.1014E-02   max: 0.9159E-02   D at   80  1
       a = 13.000      CL =  2.0900
      Cm = -0.1728     CD =  0.04598   =>   CDf =  0.00572    CDp =  0.04026

 Side 1  free  transition at x/c =  0.3573   62
 Side 2 forced transition at x/c =  1.0001   65

   5   rms: 0.1366E-04   max: -.1222E-03   D at   76  2
       a = 13.000      CL =  2.0900
      Cm = -0.1728     CD =  0.04598   =>   CDf =  0.00572    CDp =  0.04026

 Point added to stored polar  1
 Point written to save file  000061M0.1.log                                  
 Dump file unspecified or not available
 Calculating wake trajectory ...
 Calculating source influence matrix ...

 Solving BL system ...

 Side 1  free  transition at x/c =  0.3573   62
 Side 2 forced transition at x/c =  1.0001   65

   1   rms: 0.1327E+00   max: 0.5512E+00   D at   79  1   RLX: 0.657
       a = 14.000      CL =  2.0835
      Cm = -0.1694     CD =  0.05384   =>   CDf =  0.00535    CDp =  0.04849

 Side 1  free  transition at x/c =  0.3377   62
 Side 2 forced transition at x/c =  1.0001   64

   2   rms: 0.4725E-01   max: -.3717E+00   D at   62  1
       a = 14.000      CL =  2.0733
      Cm = -0.1675     CD =  0.05820   =>   CDf =  0.00569    CDp =  0.05251

 Side 1  free  transition at x/c =  0.3291   61
 Side 2 forced transition at x/c =  1.0001   64

   3   rms: 0.1680E-01   max: -.1080E+00   D at   80  1
       a = 14.000      CL =  2.0827
      Cm = -0.1676     CD =  0.05683   =>   CDf =  0.00562    CDp =  0.05121

 Side 1  free  transition at x/c =  0.3290   61
 Side 2 forced transition at x/c =  1.0001   64

   4   rms: 0.2633E-02   max: -.1056E-01   D at   77  2
       a = 14.000      CL =  2.0849
      Cm = -0.1678     CD =  0.05682   =>   CDf =  0.00558    CDp =  0.05124

 Side 1  free  transition at x/c =  0.3288   61
 Side 2 forced transition at x/c =  1.0001   64

   5   rms: 0.1066E-03   max: -.7304E-03   D at   76  2
       a = 14.000      CL =  2.0850
      Cm = -0.1678     CD =  0.05684   =>   CDf =  0.00559    CDp =  0.05125

 Side 1  free  transition at x/c =  0.3288   61
 Side 2 forced transition at x/c =  1.0001   64

   6   rms: 0.5317E-05   max: 0.7643E-04   C at   64  2
       a = 14.000      CL =  2.0850
      Cm = -0.1678     CD =  0.05684   =>   CDf =  0.00559    CDp =  0.05125

 Point added to stored polar  1
 Point written to save file  000061M0.1.log                                  
 Dump file unspecified or not available
 Calculating wake trajectory ...
 Calculating source influence matrix ...

 Solving BL system ...

 Side 1  free  transition at x/c =  0.3288   61
 Side 2 forced transition at x/c =  1.0001   64

   1   rms: 0.1534E+00   max: 0.7741E+00   D at   77  1   RLX: 0.545
       a = 15.000      CL =  2.0597
      Cm = -0.1658     CD =  0.06726   =>   CDf =  0.00561    CDp =  0.06165

 Side 1  free  transition at x/c =  0.3110   60
 Side 2 forced transition at x/c =  1.0001   64

   2   rms: 0.5869E-01   max: 0.2835E+00   D at   77  1
       a = 15.000      CL =  2.0497
      Cm = -0.1641     CD =  0.07341   =>   CDf =  0.00515    CDp =  0.06826

 Side 1  free  transition at x/c =  0.2983   60
 Side 2 forced transition at x/c =  1.0001   63

   3   rms: 0.3090E-01   max: -.1747E+00   D at   79  1
       a = 15.000      CL =  2.0716
      Cm = -0.1636     CD =  0.06891   =>   CDf =  0.00547    CDp =  0.06344

 Side 1  free  transition at x/c =  0.3003   61
 Side 2 forced transition at x/c =  1.0001   63

   4   rms: 0.2477E-02   max: 0.2542E-01   D at   77  1
       a = 15.000      CL =  2.0719
      Cm = -0.1639     CD =  0.06967   =>   CDf =  0.00546    CDp =  0.06421

 Side 1  free  transition at x/c =  0.2999   61
 Side 2 forced transition at x/c =  1.0001   63

   5   rms: 0.1825E-03   max: 0.1236E-02   D at   77  2
       a = 15.000      CL =  2.0718
      Cm = -0.1639     CD =  0.06966   =>   CDf =  0.00545    CDp Got result {'DD': 0.01631, 'Dmin': 0.01645, 'LL': -1.2977}
Completed successfully in 2.72 seconds. [{'DD': 0.01631, 'Dmin': 0.01645, 'LL': -1.2977}]
=  0.06422

 Side 1  free  transition at x/c =  0.2999   61
 Side 2 forced transition at x/c =  1.0001   63

   6   rms: 0.1043E-04   max: 0.8281E-04   D at   77  2
       a = 15.000      CL =  2.0718
      Cm = -0.1639     CD =  0.06966   =>   CDf =  0.00545    CDp =  0.06422

 Point added to stored polar  1
 Point written to save file  000061M0.1.log                                  
 Dump file unspecified or not available

.OPERva   c>  
 XFOIL   c>  
