Job launching after 0.39 seconds in submission.
Running python job.
Changed into dir /home/simonx/Documents/Udacity/Projects/capstone/PESM_NSGA2_CST_XFoil
Importing evaluationFunctionXFoil.py
Running evaluationFunctionXFoil.main()
0
1
2
0.04
resp: 
 ===================================================
  XFOIL Version 6.97
  Copyright (C) 2000   Mark Drela, Harold Youngren

  This software comes with ABSOLUTELY NO WARRANTY,
    subject to the GNU General Public License.

  Caveat computor
 ===================================================

 File  xfoil.def  not found

   QUIT    Exit program

  .OPER    Direct operating point(s)
  .MDES    Complex mapping design routine
  .QDES    Surface speed design routine
  .GDES    Geometry design routine

   SAVE f  Write airfoil to labeled coordinate file
   PSAV f  Write airfoil to plain coordinate file
   ISAV f  Write airfoil to ISES coordinate file
   MSAV f  Write airfoil to MSES coordinate file
   REVE    Reverse written-airfoil node ordering
   DELI i  Change written-airfoil file delimiters

   LOAD f  Read buffer airfoil from coordinate file
   NACA i  Set NACA 4,5-digit airfoil and buffer airfoil
   INTE    Set buffer airfoil by interpolating two airfoils
   NORM    Buffer airfoil normalization toggle
   HALF    Halve the number of points in buffer airfoil
   XYCM rr Change CM reference location, currently  0.25000 0.00000

   BEND    Display structural properties of current airfoil

   PCOP    Set current-airfoil panel nodes directly from buffer airfoil points
   PANE    Set current-airfoil panel nodes ( 160 ) based on curvature
  .PPAR    Show/change paneling

  .PLOP    Plotting options

   WDEF f  Write  current-settings file
   RDEF f  Reread current-settings file
   NAME s  Specify new airfoil name
   NINC    Increment name version number

   Z       Zoom    | (available in all menus)
   U       Unzoom  | 

 XFOIL   c>   ...............................................

  G raphics-enable flag:        T
  S ize of plot object          10.00"
  A spect ratio of plot object   0.5500
  P age dimensions              11.00 x  8.50"
  M argins from page edges       0.00",  0.00"
  F ont size (relative)          0.0150
  W indow/screen size fraction   0.8000
  B lowup input method:        Cursor    
  O rientation of plot:        Landscape 
  C olor PostScript output?     F

      Option, Value   (or <Return>)    c>   ...............................................

  G raphics-enable flag:        F
  S ize of plot object          10.00"
  A spect ratio of plot object   0.5500
  P age dimensions              11.00 x  8.50"
  M argins from page edges       0.00",  0.00"
  F ont size (relative)          0.0150
  W indow/screen size fraction   0.8000
  B lowup input method:        Cursor    
  O rientation of plot:        Landscape 
  C olor PostScript output?     F

      Option, Value   (or <Return>)    c>  
 XFOIL   c>  
 Labeled airfoil file.  Name:  000100                                          

 Number of input coordinate points: 200
 Clockwise ordering
 Max thickness =     0.258505  at x =   0.169
 Max camber    =     0.043201  at x =   0.624

  LE  x,y  =   0.00000  -0.00001  |   Chord =   0.99988
  TE  x,y  =   0.99988   0.00003  |

 Current airfoil nodes set from buffer airfoil nodes ( 200 )

 XFOIL   c>  
 You are working with the buffer airfoil

.GDES   c>  
  i       x        y      angle
   2   0.9990   0.0002   -0.057
   3   0.9978   0.0005   -0.120
   4   0.9961   0.0008   -0.132
   5   0.9938   0.0013   -0.194
   6   0.9911   0.0019   -0.190
   7   0.9880   0.0026   -0.249
   8   0.9843   0.0035   -0.247
   9   0.9801   0.0044   -0.279
  10   0.9755   0.0055   -0.272
  11   0.9704   0.0068   -0.305
  12   0.9649   0.0081   -0.287
  13   0.9589   0.0097   -0.302
  14   0.9524   0.0113   -0.294
  15   0.9455   0.0132   -0.275
  16   0.9382   0.0152   -0.263
  17   0.9304   0.0173   -0.248
  18   0.9222   0.0196   -0.212
  19   0.9135   0.0220   -0.196
  20   0.9045   0.0246   -0.155
  21   0.8951   0.0274   -0.127
  22   0.8853   0.0302   -0.077
  23   0.8751   0.0332   -0.040
  24   0.8645   0.0363   -0.001
  25   0.8536   0.0396    0.045
  26   0.8423   0.0429    0.098
  27   0.8307   0.0463    0.138
  28   0.8187   0.0497    0.185
  29   0.8065   0.0532    0.239
  30   0.7939   0.0568    0.280
  31   0.7810   0.0603    0.328
  32   0.7679   0.0639    0.364
  33   0.7545   0.0674    0.411
  34   0.7409   0.0709    0.446
  35   0.7270   0.0743    0.476
  36   0.7129   0.0777    0.514
  37   0.6986   0.0810    0.530
  38   0.6841   0.0841    0.558
  39   0.6694   0.0872    0.574
  40   0.6545   0.0902    0.581
  41   0.6395   0.0930    0.593
  42   0.6243   0.0957    0.589
  43   0.6091   0.0982    0.588
  44   0.5937   0.1006    0.574
  45   0.5782   0.1029    0.564
  46   0.5627   0.1050    0.547
  47   0.5471   0.1070    0.518
  48   0.5314   0.1088    0.496
  49   0.5157   0.1105    0.468
  50   0.5000   0.1121    0.430
  51   0.4843   0.1135    0.404
  52   0.4686   0.1149    0.365
  53   0.4529   0.1161    0.333
  54   0.4373   0.1173    0.298
  55   0.4218   0.1183    0.269
  56   0.4063   0.1193    0.242
  57   0.3909   0.1202    0.215
  58   0.3757   0.1211    0.197
  59   0.3605   0.1218    0.182
  60   0.3455   0.1226    0.172
  61   0.3306   0.1232    0.173
  62   0.3159   0.1239    0.178
  63   0.3014   0.1244    0.201
  64   0.2871   0.1250    0.225
  65   0.2730   0.1254    0.267
  66   0.2591   0.1258    0.313
  67   0.2455   0.1261    0.374
  68   0.2321   0.1263    0.454
  69   0.2190   0.1264    0.544
  70   0.2061   0.1264    0.646
  71   0.1935   0.1262    0.766
  72   0.1813   0.1259    0.903
  73   0.1693   0.1254    1.057
  74   0.1577   0.1247    1.221
  75   0.1464   0.1237    1.411
  76   0.1355   0.1226    1.605
  77   0.1249   0.1211    1.835
  78   0.1147   0.1194    2.057
  79   0.1049   0.1174    2.302
  80   0.0955   0.1151    2.555
  81   0.0865   0.1124    2.807
  82   0.0778   0.1094    3.072
  83   0.0696   0.1060    3.303
  84   0.0618   0.1023    3.539
  85   0.0545   0.0981    3.740
  86   0.0476   0.0937    3.916
  87   0.0411   0.0888    4.033
  88   0.0351   0.0836    4.136
  89   0.0296   0.0781    4.172
  90   0.0245   0.0722    4.179
  91   0.0199   0.0660    4.155
  92   0.0157   0.0594    4.105
  93   0.0120   0.0527    4.010
  94   0.0089   0.0456    3.948
  95   0.0062   0.0384    3.852
  96   0.0039   0.0309    3.770
  97   0.0022   0.0233    3.710
  98   0.0010   0.0156    3.651
  99   0.0002   0.0078    3.620
 100   0.0000   0.0000    3.612
 101   0.0002  -0.0078    3.604
 102   0.0010  -0.0157    3.606
 103   0.0022  -0.0234    3.619
 104   0.0039  -0.0311    3.616
 105   0.0062  -0.0387    3.624
 106   0.0089  -0.0462    3.646
 107   0.0120  -0.0535    3.634
 108   0.0157  -0.0606    3.668
 109   0.0199  -0.0676    3.660
 110   0.0245  -0.0743    3.677
 111   0.0296  -0.0808    3.670
 112   0.0351  -0.0870    3.680
 113   0.0411  -0.0929    3.658
 114   0.0476  -0.0985    3.662
 115   0.0545  -0.1037    3.626
 116   0.0618  -0.1086    3.582
 117   0.0696  -0.1131    3.539
 118   0.0778  -0.1172    3.471
 119   0.0865  -0.1208    3.391
 120   0.0955  -0.1240    3.291
 121   0.1049  -0.1268    3.193
 122   0.1147  -0.1290    3.063
 123   0.1249  -0.1309    2.938
 124   0.1355  -0.1322    2.789
 125   0.1464  -0.1330    2.639
 126   0.1577  -0.1333    2.484
 127   0.1693  -0.1331    2.320
 128   0.1813  -0.1325    2.160
 129   0.1935  -0.1313    2.000
 130   0.2061  -0.1297    1.824
 131   0.2190  -0.1277    1.673
 132   0.2321  -0.1251    1.510
 133   0.2455  -0.1222    1.355
 134   0.2591  -0.1189    1.198
 135   0.2730  -0.1152    1.052
 136   0.2871  -0.1112    0.905
 137   0.3014  -0.1069    0.766
 138   0.3159  -0.1022    0.627
 139   0.3306  -0.0974    0.498
 140   0.3455  -0.0924    0.372
 141   0.3605  -0.0872    0.242
 142   0.3757  -0.0819    0.127
 143   0.3909  -0.0765    0.006
 144   0.4063  -0.0710   -0.098
 145   0.4218  -0.0656   -0.213
 146   0.4373  -0.0602   -0.308
 147   0.4529  -0.0548   -0.413
 148   0.4686  -0.0496   -0.499
 149   0.4843  -0.0445   -0.586
 150   0.5000  -0.0396   -0.670
 151   0.5157  -0.0349   -0.745
 152   0.5314  -0.0304   -0.805
 153   0.5471  -0.0262   -0.871
 154   0.5627  -0.0222   -0.921
 155   0.5782  -0.0185   -0.961
 156   0.5937  -0.0151   -0.994
 157   0.6091  -0.0120   -1.021
 158   0.6243  -0.0093   -1.030
 159   0.6395  -0.0068   -1.033
 160   0.6545  -0.0046   -1.033
 161   0.6694  -0.0027   -1.010
 162   0.6841  -0.0011   -0.989
 163   0.6986   0.0003   -0.957
 164   0.7129   0.0014   -0.906
 165   0.7270   0.0022   -0.867
 166   0.7409   0.0028   -0.799
 167   0.7545   0.0032   -0.745
 168   0.7679   0.0035   -0.674
 169   0.7810   0.0035   -0.604
 170   0.7939   0.0035   -0.526
 171   0.8065   0.0033   -0.454
 172   0.8187   0.0030   -0.373
 173   0.8307   0.0027   -0.292
 174   0.8423   0.0023   -0.220
 175   0.8536   0.0019   -0.147
 176   0.8645   0.0015   -0.067
 177   0.8751   0.0010   -0.001
 178   0.8853   0.0006    0.066
 179   0.8951   0.0002    0.123
 180   0.9045  -0.0002    0.190
 181   0.9135  -0.0005    0.232
 182   0.9222  -0.0007    0.281
 183   0.9304  -0.0009    0.317
 184   0.9382  -0.0011    0.346
 185   0.9455  -0.0012    0.380
 186   0.9524  -0.0012    0.387
 187   0.9589  -0.0013    0.398
 188   0.9649  -0.0012    0.401
 189   0.9704  -0.0011    0.396
 190   0.9755  -0.0010    0.390
 191   0.9801  -0.0009    0.357
 192   0.9843  -0.0008    0.358
 193   0.9880  -0.0006    0.287
 194   0.9911  -0.0005    0.310
 195   0.9938  -0.0004    0.216
 196   0.9961  -0.0002    0.209
 197   0.9978  -0.0001    0.151
 198   0.9990  -0.0001    0.120
 199   0.9998  -0.0000   -0.082

 Maximum panel corner angle =  4.179   at  i,x,y  =  90   0.0245   0.0722

 Enter corner angle criterion for refinement (deg):   2.089
 Enter type of spline parameter (1=uniform, 2=arclength):   1
 Enter refinement x limits:  -0.10000   1.10000
 Number of points added:          100
 Max thickness =     0.258529  at x =   0.173
 Max camber    =     0.043200  at x =   0.624

 Maximum panel corner angle =  1.835   at  i,x,y  =  77   0.1249   0.1211

.GDES   c>  
 Buffer airfoil is not identical to current airfoil

 XFOIL   c>  
 Blunt trailing edge.  Gap =  0.00025

 Paneling parameters used...
   Number of panel nodes       160
   Panel bunching parameter    1.000
   TE/LE panel density ratio   0.150
   Refined-area/LE panel density ratio    0.200
   Top    side refined area x/c limits  1.000 1.000
   Bottom side refined area x/c limits  1.000 1.000

 XFOIL   c>  
Enter output filename   s>  
 XFOIL   c>  
.OPERi   c>   Current iteration limit:          20

Enter new iteration limit   i>  
Enter new iteration limit   i>  
Enter new iteration limit   i>  
.OPERi   c>  
 M  =    0.0000
 Re =  0.3000E+06

.OPERv   c>  
 Sonic Cp =   -420.65      Sonic Q/Qinf =    22.825


.OPERv   c>  
 Polar  1 newly created for accumulation
 Airfoil archived with polar: 000100                                          

Enter  polar save filename  OR  <return> for no file   s>  
 New polar save file available

Enter  polar dump filename  OR  <return> for no file   s>  
 Polar dump file will NOT be written

 Polar accumulation enabled

.OPERva   c>   Calculating unit vorticity distributions ...
 Calculating wake trajectory ...
 Calculating source influence matrix ...

 Solving BL system ...

 Initializing BL ...
    side            1  ...
 MRCHUE: Inverse mode at  43     Hk =   4.172
 MRCHUE: Inverse mode at  44     Hk =   4.919
 MRCHUE: Inverse mode at  45     Hk =   5.686
 MRCHUE: Inverse mode at  46     Hk =   6.484
 MRCHUE: Inverse mode at  47     Hk =   7.326
 MRCHUE: Inverse mode at  48     Hk =   8.225
 MRCHUE: Inverse mode at  49     Hk =   9.196
 MRCHUE: Inverse mode at  50     Hk =   7.016
 MRCHUE: Inverse mode at  51     Hk =   3.061
 MRCHUE: Inverse mode at  76     Hk =   2.500
 MRCHUE: Inverse mode at  77     Hk =   2.500
 MRCHUE: Inverse mode at  78     Hk =   2.500
 MRCHUE: Inverse mode at  79     Hk =   2.500
 MRCHUE: Convergence failed at  80  side 1    Res =  0.1241E+02
    side            2  ...
 MRCHUE: Inverse mode at  43     Hk =   3.938
 MRCHUE: Inverse mode at  44     Hk =   4.654
 MRCHUE: Inverse mode at  45     Hk =   5.379
 MRCHUE: Inverse mode at  46     Hk =   6.120
 MRCHUE: Inverse mode at  47     Hk =   6.888
 MRCHUE: Inverse mode at  48     Hk =   7.692
 MRCHUE: Inverse mode at  49     Hk =   8.542
 MRCHUE: Inverse mode at  50     Hk =   9.449
 MRCHUE: Inverse mode at  51     Hk =   6.519
 MRCHUE: Inverse mode at  52     Hk =   3.301
 MRCHUE: Inverse mode at  53     Hk =   2.500
 MRCHUE: Inverse mode at  54     Hk =   2.500
 MRCHUE: Inverse mode at  57     Hk =   2.500
 MRCHUE: Inverse mode at  58     Hk =   2.500
 MRCHUE: Inverse mode at  59     Hk =   2.500
 MRCHUE: Inverse mode at  60     Hk =   2.500
 MRCHUE: Inverse mode at  61     Hk =   2.500
 MRCHUE: Inverse mode at  62     Hk =   2.500
 MRCHUE: Inverse mode at  63     Hk =   2.500
 MRCHUE: Inverse mode at  64     Hk =   2.500
 MRCHUE: Inverse mode at  65     Hk =   2.500
 MRCHUE: Inverse mode at  66     Hk =   2.500
 MRCHUE: Inverse mode at  67     Hk =   2.500
 MRCHUE: Inverse mode at  68     Hk =   2.500
 MRCHUE: Inverse mode at  69     Hk =   2.500
 MRCHUE: Inverse mode at  70     Hk =   2.500
 MRCHUE: Convergence failed at  82  side 2    Res =  0.1220E+02
 MRCHUE: Convergence failed at  84  side 2    Res =  0.4786E-01

 MRCHDU: Convergence failed at  80  side 1    Res =  0.1241E+02
 MRCHDU: Convergence failed at  82  side 2    Res =  0.4067E+00
 MRCHDU: Convergence failed at  84  side 2    Res =  0.4783E-01
 Side 1  free  transition at x/c =  0.2017   50
 Side 2  free  transition at x/c =  0.2882   51

   1   rms: 0.7878E+00   max: 0.3890E+01   D at   84  2   RLX: 0.374
       a =  2.000      CL =  0.6664
      Cm = -0.1316     CD =  0.00675   =>   CDf =  0.00827    CDp = -0.00152

 Side 1  free  transition at x/c =  0.2037   50
 Side 2  free  transition at x/c =  0.2870   51

   2   rms: 0.3366E+00   max: 0.1436E+01   D at   85  2   RLX: 0.570
       a =  2.000      CL =  0.6106
      Cm = -0.1210     CD =  0.01301   =>   CDf =  0.00856    CDp =  0.00445

 Side 1  free  transition at x/c =  0.2068   50
 Side 2  free  transition at x/c =  0.2810   50

   3   rms: 0.1409E+00   max: 0.7752E+00   T at   50  2   RLX: 0.860
       a =  2.000      CL =  0.5322
      Cm = -0.1036     CD =  0.02056   =>   CDf =  0.00881    CDp =  0.01175

 Side 1  free  transition at x/c =  0.2101   50
 Side 2  free  transition at x/c =  0.2705   51

   4   rms: 0.5522E-01   max: -.3177E+00   D at   52  2
       a =  2.000      CL =  0.5061
      Cm = -0.0992     CD =  0.02187   =>   CDf =  0.00848    CDp =  0.01339

 Side 1  free  transition at x/c =  0.2129   50
 Side 2  free  transition at x/c =  0.2704   51

   5   rms: 0.6132E-02   max: 0.4860E-01   T at   51  2
       a =  2.000      CL =  0.5049
      Cm = -0.0987     CD =  0.02224   =>   CDf =  0.00853    CDp =  0.01371

 Side 1  free  transition at x/c =  0.2123   50
 Side 2  free  transition at x/c =  0.2697   51

   6   rms: 0.5329E-03   max: -.3090E-02   D at   51  2
       a =  2.000      CL =  0.5048
      Cm = -0.0987     CD =  0.02224   =>   CDf =  0.00856    CDp =  0.01368

 Side 1  free  transition at x/c =  0.2123   50
 Side 2  free  transition at x/c =  0.2697   51

   7   rms: 0.2112E-05   max: -.1301E-04   D at   64  2
       a =  2.000      CL =  0.5048
      Cm = -0.0987     CD =  0.02224   =>   CDf =  0.00856    CDp =  0.01367

 Point added to stored polar  1
 Point written to save file  000100M0.04.log                                 
 Dump file unspecified or not available
 Calculating wake trajectory ...
 Calculating source influence matrix ...

 Solving BL system ...

 Side 1  free  transition at x/c =  0.2123   50
 Side 2  free  transition at x/c =  0.2697   51

   1   rms: 0.1252E+00   max: 0.4927E+00   T at   50  1
       a =  3.000      CL =  0.6114
      Cm = -0.0959     CD =  0.02362   =>   CDf =  0.00825    CDp =  0.01538

 MRCHDU: Convergence failed at  52  side 1    Res =  0.1866E+01
 MRCHDU: Convergence failed at  53  side 1    Res =  0.2326E+02
 MRCHDU: Convergence failed at  54  side 1    Res =  0.1082E+02
 MRCHDU: Convergence failed at  55  side 1    Res =  0.5866E+01
 MRCHDU: Convergence failed at  56  side 1    Res =  0.4162E+01
 MRCHDU: Convergence failed at  57  side 1    Res =  0.3765E+01
 MRCHDU: Convergence failed at  58  side 1    Res =  0.3931E+01
 MRCHDU: Convergence failed at  59  side 1    Res =  0.4662E+01
 MRCHDU: Convergence failed at  60  side 1    Res =  0.5773E+01
 MRCHDU: Convergence failed at  61  side 1    Res =  0.7767E+01
 MRCHDU: Convergence failed at  62  side 1    Res =  0.1109E+02
 MRCHDU: Convergence failed at  63  side 1    Res =  0.1846E+02
 MRCHDU: Convergence failed at  64  side 1    Res =  0.5648E+02
 MRCHDU: Convergence failed at  65  side 1    Res =  0.3383E+03
 MRCHDU: Convergence failed at  66  side 1    Res =  0.5161E+02
 MRCHDU: Convergence failed at  67  side 1    Res =  0.2062E+02
 MRCHDU: Convergence failed at  68  side 1    Res =  0.1348E+02
 MRCHDU: Convergence failed at  69  side 1    Res =  0.9102E+01
 MRCHDU: Convergence failed at  70  side 1    Res =  0.1386E+02
 MRCHDU: Convergence failed at  71  side 1    Res =  0.1761E+02
 MRCHDU: Convergence failed at  72  side 1    Res =  0.2255E+02
 MRCHDU: Convergence failed at  73  side 1    Res =  0.3110E+02
 MRCHDU: Convergence failed at  74  side 1    Res =  0.4459E+02
 MRCHDU: Convergence failed at  75  side 1    Res =  0.5122E+02
 MRCHDU: Convergence failed at  76  side 1    Res =  0.2082E+02
 MRCHDU: Convergence failed at  77  side 1    Res =  0.6333E+02
 MRCHDU: Convergence failed at  78  side 1    Res =  0.2473E+03
 MRCHDU: Convergence failed at  79  side 1    Res =  0.7680E+02
 MRCHDU: Convergence failed at  80  side 1    Res =  0.2901E+02
 MRCHDU: Convergence failed at  81  side 1    Res =  0.2333E+02
 Side 1  free  transition at x/c =  0.2015   51
 Side 2  free  transition at x/c =  0.2770   49

   2   rms: 0.7717E+00   max: 0.4680E+01   D at   81  1   RLX: 0.321
       a =  3.000      CL =  1.0491
      Cm = -0.3129     CD =  0.01372   =>   CDf =  0.00453    CDp =  0.00920

 MRCHDU: Convergence failed at  60  side 1    Res =  0.1107E+00
 MRCHDU: Convergence failed at  62  side 1    Res =  0.1910E+00
 MRCHDU: Convergence failed at  64  side 1    Res =  0.2158E+00
 MRCHDU: Convergence failed at  67  side 1    Res =  0.1777E+00
 MRCHDU: Convergence failed at  68  side 1    Res =  0.1405E+00
 Side 1  free  transition at x/c =  0.1947   50
 Side 2  free  transition at x/c =  0.2744   50

   3   rms: 0.2880E+00   max: -.1289E+01   D at   60  1   RLX: 0.388
       a =  3.000      CL =  0.6600
      Cm = -0.1661     CD =  0.03110   =>   CDf =  0.00620    CDp =  0.02490

 Side 1  free  transition at x/c =  0.2000   50
 Side 2  free  transition at x/c =  0.2759   50

   4   rms: 0.6304E+00   max: -.3715E+01   D at   67  1   RLX: 0.135
       a =  3.000      CL =  0.5696
      Cm = -0.1439     CD =  0.02973   =>   CDf =  0.00616    CDp =  0.02357

 Side 1  free  transition at x/c =  0.2074   50
 Side 2  free  transition at x/c =  0.2750   50

   5   rms: 0.7869E+00   max: -.3923E+01   T at   55  1   RLX: 0.127
       a =  3.000      CL =  0.6148
      Cm = -0.1458     CD =  0.03150   =>   CDf =  0.00663    CDp =  0.02487

 Side 1  free  transition at x/c =  0.1985   50
 Side 2  free  transition at x/c =  0.2768   50

   6   rms: 0.3621E+00   max: -.2275E+01   D at   59  1   RLX: 0.220
       a =  3.000      CL =  0.5618
      Cm = -0.1266     CD =  0.03159   =>   CDf =  0.00563    CDp =  0.02597

 Side 1  free  transition at x/c =  0.2034   50
 Side 2  free  transition at x/c =  0.2761   50

   7   rms: 0.4954E+00   max: -.3257E+01   D at   60  1   RLX: 0.154
       a =  3.000      CL =  0.5187
      Cm = -0.1132     CD =  0.03033   =>   CDf =  0.00597    CDp =  0.02435

 Side 1  free  transition at x/c =  0.2077   50
 Side 2  free  transition at x/c =  0.2751   50

   8   rms: 0.1578E+02   max: -.1058E+03   T at   50  1   RLX: 0.005
       a =  3.000      CL =  0.4940
      Cm = -0.1093     CD =  0.03169   =>   CDf =  0.00650    CDp =  0.02519

 MRCHDU: Convergence failed at  51  side 1    Res =  0.4292E+01
 MRCHDU: Convergence failed at  52  side 1    Res =  0.9847E+01
 Side 1  free  transition at x/c =  0.2201   51
 Side 2  free  transition at x/c =  0.2743   50

   9   rms: 0.3099E+00   max: -.1837E+01   D at   64  1   RLX: 0.272
       a =  3.000      CL =  0.5385
      Cm = -0.0984     CD =  0.02441   =>   CDf =  0.00705    CDp =  0.01736

 Side 1  free  transition at x/c =  0.2147   51
 Side 2  free  transition at x/c =  0.2757   50

  10   rms: 0.2596E+00   max: -.1273E+01   D at   65  1   RLX: 0.393
       a =  3.000      CL =  0.5868
      Cm = -0.0982     CD =  0.02262   =>   CDf =  0.00808    CDp =  0.01455

 Side 1  free  transition at x/c =  0.2079   50
 Side 2  free  transition at x/c =  0.2781   50

  11   rms: 0.1392E+00   max: -.8154E+00   D at   65  1   RLX: 0.613
       a =  3.000      CL =  0.6143
      Cm = -0.0957     CD =  0.02230   =>   CDf =  0.00839    CDp =  0.01391

 Side 1  free  transition at x/c =  0.2031   51
 Side 2  free  transition at x/c =  0.2793   49

  12   rms: 0.6438E-01   max: -.3972E+00   D at   76  1
       a =  3.000      CL =  0.6290
      Cm = -0.0975     CD =  0.02196   =>   CDf =  0.00862    CDp =  0.01334

 Side 1  free  transition at x/c =  0.1996   51
 Side 2  free  transition at x/c =  0.2794   49

  13   rms: 0.2308E-01   max: 0.1718E+00   D at   83  2
       a =  3.000      CL =  0.6159
      Cm = -0.0967     CD =  0.02293   =>   CDf =  0.00868    CDp =  0.01425

 Side 1  free  transition at x/c =  0.2000   51
 Side 2  free  transition at x/c =  0.2788   49

  14   rms: 0.3318E-02   max: 0.2112E-01   D at   81  1
       a =  3.000      CL =  0.6116
      Cm = -0.0961     CD =  0.02296   =>   CDf =  0.00864    CDp =  0.01433

 Side 1  free  transition at x/c =  0.2002   51
 Side 2  free  transition at x/c =  0.2787   49

  15   rms: 0.8572E-04   max: 0.6714E-03   D at   83  2
       a =  3.000      CL =  0.6116
      Cm = -0.0961     CD =  0.02296   =>   CDf =  0.00863    CDp =  0.01434

 Point added to stored polar  1
 Point written to save file  000100M0.04.log                                 
 Dump file unspecified or not available
 Calculating wake trajectory ...
 Calculating source influence matrix ...

 Solving BL system ...

 Side 1  free  transition at x/c =  0.2002   51
 Side 2  free  transition at x/c =  0.2787   49

   1   rms: 0.1245E+00   max: -.5369E+00   T at   49  2   RLX: 0.931
       a =  4.000      CL =  0.7113
      Cm = -0.0939     CD =  0.02328   =>   CDf =  0.00846    CDp =  0.01483

 Side 1  free  transition at x/c =  0.1913   51
 Side 2  free  transition at x/c =  0.2901   49

   2   rms: 0.5999E-01   max: 0.6339E+00   D at   49  2
       a =  4.000      CL =  0.7162
      Cm = -0.0933     CD =  0.02358   =>   CDf =  0.00890    CDp =  0.01468

 Side 1  free  transition at x/c =  0.1901   51
 Side 2  free  transition at x/c =  0.2882   49

   3   rms: 0.5281E-02   max: 0.3960E-01   D at   50  2
       a =  4.000      CL =  0.7188
      Cm = -0.0937     CD =  0.02371   =>   CDf =  0.00873    CDp =  0.01499

 Side 1  free  transition at x/c =  0.1899   51
 Side 2  free  transition at x/c =  0.2876   49

   4   rms: 0.2071E-03   max: -.1001E-02   D at   49  2
       a =  4.000      CL =  0.7187
      Cm = -0.0937     CD =  0.02371   =>   CDf =  0.00873    CDp =  0.01498

 Side 1  free  transition at x/c =  0.1899   51
 Side 2  free  transition at x/c =  0.2876   49

   5   rms: 0.1199E-05   max: -.6893E-05   D at   59  2
       a =  4.000      CL =  0.7187
      Cm = -0.0937     CD =  0.02371   =>   CDf =  0.00873    CDp =  0.01498

 Point added to stored polar  1
 Point written to save file  000100M0.04.log                                 
 Dump file unspecified or not available
 Calculating wake trajectory ...
 Calculating source influence matrix ...

 Solving BL system ...

 Side 1  free  transition at x/c =  0.1899   51
 Side 2  free  transition at x/c =  0.2876   49

   1   rms: 0.1165E+00   max: 0.4200E+00   T at   51  1
       a =  5.000      CL =  0.8189
      Cm = -0.0896     CD =  0.02460   =>   CDf =  0.00853    CDp =  0.01607

 Side 1  free  transition at x/c =  0.1807   52
 Side 2  free  transition at x/c =  0.2954   48

   2   rms: 0.6046E-01   max: -.2649E+00   D at   49  2
       a =  5.000      CL =  0.8195
      Cm = -0.0902     CD =  0.02444   =>   CDf =  0.00869    CDp =  0.01574

 Side 1  free  transition at x/c =  0.1812   52
 Side 2  free  transition at x/c =  0.2982   48

   3   rms: 0.4981E-02   max: 0.5030E-01   D at   49  2
       a =  5.000      CL =  0.8208
      Cm = -0.0903     CD =  0.02458   =>   CDf =  0.00888    CDp =  0.01570

 Side 1  free  transition at x/c =  0.1811   52
 Side 2  free  transition at x/c =  0.2978   48

   4   rms: 0.2948E-03   max: 0.2162E-02   D at   49  2
       a =  5.000      CL =  0.8208
      Cm = -0.0903     CD =  0.02457   =>   CDf =  0.00887    CDp =  0.01570

 Side 1  free  transition at x/c =  0.1811   52
 Side 2  free  transition at x/c =  0.2978   48

   5   rms: 0.1338E-05   max: 0.5724E-05   D at   84  2
       a =  5.000      CL =  0.8208
      Cm = -0.0903     CD =  0.02457   =>   CDf =  0.00887    CDp =  0.01570

 Point added to stored polar  1
 Point written to save file  000100M0.04.log                                 
 Dump file unspecified or not available
 Calculating wake trajectory ...
 Calculating source influence matrix ...

 Solving BL system ...

 Side 1  free  transition at x/c =  0.1811   52
 Side 2  free  transition at x/c =  0.2978   48

   1   rms: 0.1297E+00   max: -.5676E+00   T at   48  2   RLX: 0.881
       a =  6.000      CL =  0.9211
      Cm = -0.0893     CD =  0.02580   =>   CDf =  0.00865    CDp =  0.01715

 MRCHDU: Convergence failed at  53  side 1    Res =  0.6666E+01
 MRCHDU: Convergence failed at  54  side 1    Res =  0.3791E+01
 MRCHDU: Convergence failed at  55  side 1    Res =  0.1850E+02
 MRCHDU: Convergence failed at  56  side 1    Res =  0.4716E+01
 MRCHDU: Convergence failed at  57  side 1    Res =  0.3363E+01
 MRCHDU: Convergence failed at  58  side 1    Res =  0.2943E+01
 MRCHDU: Convergence failed at  59  side 1    Res =  0.5230E+01
 MRCHDU: Convergence failed at  60  side 1    Res =  0.6988E+01
 MRCHDU: Convergence failed at  61  side 1    Res =  0.8060E+01
 MRCHDU: Convergence failed at  62  side 1    Res =  0.8105E+01
 MRCHDU: Convergence failed at  63  side 1    Res =  0.7451E+01
 MRCHDU: Convergence failed at  64  side 1    Res =  0.6664E+01
 MRCHDU: Convergence failed at  65  side 1    Res =  0.6995E+01
 MRCHDU: Convergence failed at  66  side 1    Res =  0.7476E+02
 MRCHDU: Convergence failed at  67  side 1    Res =  0.4188E+02
 MRCHDU: Convergence failed at  68  side 1    Res =  0.2320E+02
 MRCHDU: Convergence failed at  69  side 1    Res =  0.2806E+02
 MRCHDU: Convergence failed at  70  side 1    Res =  0.2474E+02
 MRCHDU: Convergence failed at  71  side 1    Res =  0.4749E+02
 MRCHDU: Convergence failed at  72  side 1    Res =  0.4484E+02
 MRCHDU: Convergence failed at  73  side 1    Res =  0.5764E+02
 MRCHDU: Convergence failed at  74  side 1    Res =  0.1010E+03
 MRCHDU: Convergence failed at  75  side 1    Res =  0.1626E+03
 MRCHDU: Convergence failed at  76  side 1    Res =  0.4511E+02
 MRCHDU: Convergence failed at  77  side 1    Res =  0.3886E+02
 MRCHDU: Convergence failed at  78  side 1    Res =  0.3083E+03
 MRCHDU: Convergence failed at  79  side 1    Res =  0.6800E+02
 MRCHDU: Convergence failed at  80  side 1    Res =  0.1100E+03
 MRCHDU: Convergence failed at  81  side 1    Res =  0.3405E+02
 MRCHDU: Convergence failed at  82  side 1    Res =  0.1988E+02
 MRCHDU: Convergence failed at  83  side 1    Res =  0.2350E+02
 MRCHDU: Convergence failed at  84  side 1    Res =  0.2617E+02
 MRCHDU: Convergence failed at  48  side 2    Res =  0.5536E+01
 MRCHDU: Convergence failed at  49  side 2    Res =  0.3836E+04
 MRCHDU: Convergence failed at  50  side 2    Res =  0.8932E+01
 MRCHDU: Convergence failed at  51  side 2    Res =  0.1402E+02
 MRCHDU: Convergence failed at  52  side 2    Res =  0.1654E+02
 MRCHDU: Convergence failed at  53  side 2    Res =  0.1586E+02
 MRCHDU: Convergence failed at  54  side 2    Res =  0.1421E+02
 MRCHDU: Convergence failed at  55  side 2    Res =  0.2200E+02
 MRCHDU: Convergence failed at  56  side 2    Res =  0.3072E+02
 MRCHDU: Convergence failed at  57  side 2    Res =  0.3630E+02
 MRCHDU: Convergence failed at  58  side 2    Res =  0.4103E+02
 MRCHDU: Convergence failed at  59  side 2    Res =  0.4557E+02
 MRCHDU: Convergence failed at  60  side 2    Res =  0.4747E+02
 MRCHDU: Convergence failed at  61  side 2    Res =  0.4845E+02
 MRCHDU: Convergence failed at  62  side 2    Res =  0.4722E+02
 MRCHDU: Convergence failed at  63  side 2    Res =  0.4407E+02
 MRCHDU: Convergence failed at  64  side 2    Res =  0.4003E+02
 MRCHDU: Convergence failed at  65  side 2    Res =  0.3535E+02
 MRCHDU: Convergence failed at  66  side 2    Res =  0.3102E+02
 MRCHDU: Convergence failed at  67  side 2    Res =  0.2697E+02
 MRCHDU: Convergence failed at  68  side 2    Res =  0.2301E+02
 MRCHDU: Convergence failed at  69  side 2    Res =  0.2805E+02
 MRCHDU: Convergence failed at  70  side 2    Res =  0.4348E+02
 MRCHDU: Convergence failed at  71  side 2    Res =  0.4241E+04
 MRCHDU: Convergence failed at  72  side 2    Res =  0.3307E+02
 MRCHDU: Convergence failed at  73  side 2    Res =  0.4536E+02
 MRCHDU: Convergence failed at  74  side 2    Res =  0.6427E+02
 MRCHDU: Convergence failed at  75  side 2    Res =  0.1202E+03
 MRCHDU: Convergence failed at  76  side 2    Res =  0.1470E+03
 MRCHDU: Convergence failed at  77  side 2    Res =  0.8128E+02
 MRCHDU: Convergence failed at  78  side 2    Res =  0.4496E+02
 Side 1  free  transition at x/c =  0.1751   52
 Side 2  free  transition at x/c =  0.3105   48

   2   rms: 0.1844E+01   max: 0.8834E+01   D at   80  2   RLX: 0.170
       a =  6.000      CL =  1.4628
      Cm = -0.3330     CD =  0.00631   =>   CDf =  0.00277    CDp =  0.00354

 MRCHDU: Convergence failed at  58  side 1    Res =  0.3517E+00
 MRCHDU: Convergence failed at  59  side 1    Res =  0.3184E+00
 MRCHDU: Convergence failed at  60  side 1    Res =  0.2613E+00
 MRCHDU: Convergence failed at  62  side 1    Res =  0.4292E+00
 MRCHDU: Convergence failed at  63  side 1    Res =  0.3815E+00
 MRCHDU: Convergence failed at  64  side 1    Res =  0.2369E+00
 MRCHDU: Convergence failed at  66  side 1    Res =  0.4268E+00
 MRCHDU: Convergence failed at  67  side 1    Res =  0.3189E+00
 MRCHDU: Convergence failed at  68  side 2    Res =  0.2078E+00
 MRCHDU: Convergence failed at  69  side 2    Res =  0.2876E+00
 MRCHDU: Convergence failed at  70  side 2    Res =  0.3513E+00
 MRCHDU: Convergence failed at  71  side 2    Res =  0.4045E+00
 MRCHDU: Convergence failed at  72  side 2    Res =  0.4544E+00
 MRCHDU: Convergence failed at  73  side 2    Res =  0.5026E+00
 MRCHDU: Convergence failed at  74  side 2    Res =  0.5505E+00
 MRCHDU: Convergence failed at  75  side 2    Res =  0.5971E+00
 MRCHDU: Convergence failed at  76  side 2    Res =  0.6413E+00
 MRCHDU: Convergence failed at  77  side 2    Res =  0.6837E+00
 MRCHDU: Convergence failed at  78  side 2    Res =  0.7278E+00
 MRCHDU: Convergence failed at  81  side 2    Res =  0.2669E+01
 Side 1  free  transition at x/c =  0.1699   52
 Side 2  free  transition at x/c =  0.3012   48

   3   rms: 0.7418E+00   max: -.1701E+01   D at   78  2   RLX: 0.294
       a =  6.000      CL =  0.8057
      Cm = -0.1879     CD =  0.04284   =>   CDf =  0.00404    CDp =  0.03880

 Side 1  free  transition at x/c =  0.1754   50
 Side 2  free  transition at x/c =  0.2995   50

   4   rms: 0.9872E+00   max: 0.9954E+01   T at   50  1   RLX: 0.110
       a =  6.000      CL =  0.8256
      Cm = -0.1830     CD =  0.05000   =>   CDf =  0.00441    CDp =  0.04560

 Side 1  free  transition at x/c =  0.1639   50
 Side 2  free  transition at x/c =  0.3020   49

   5   rms: 0.6291E+00   max: -.3624E+01   D at   76  2   RLX: 0.138
       a =  6.000      CL =  0.8404
      Cm = -0.1856     CD =  0.05079   =>   CDf =  0.00410    CDp =  0.04669

 Side 1  free  transition at x/c =  0.1700   51
 Side 2  free  transition at x/c =  0.3049   49

   6   rms: 0.9339E+00   max: -.5803E+01   D at   76  2   RLX: 0.086
       a =  6.000      CL =  0.8424
      Cm = -0.1738     CD =  0.04865   =>   CDf =  0.00441    CDp =  0.04424

 Side 1  free  transition at x/c =  0.1706   51
 Side 2  free  transition at x/c =  0.3098   49

   7   rms: 0.4888E+01   max: -.2904E+02   D at   76  2   RLX: 0.017
       a =  6.000      CL =  0.8701
      Cm = -0.1802     CD =  0.04798   =>   CDf =  0.00471    CDp =  0.04327

 Side 1  free  transition at x/c =  0.1706   51
 Side 2  free  transition at x/c =  0.3161   49

   8   rms: 0.8288E+00   max: 0.4053E+01   D at   76  2   RLX: 0.179
       a =  6.000      CL =  0.7940
      Cm = -0.1387     CD =  0.04942   =>   CDf =  0.00514    CDp =  0.04428

 MRCHDU: Convergence failed at  67  side 1    Res =  0.7711E-02
 Side 1  free  transition at x/c =  0.1737   51
 Side 2  free  transition at x/c =  0.3034   49

   9   rms: 0.5919E+00   max: -.3004E+01   D at   67  1   RLX: 0.166
       a =  6.000      CL =  0.8257
      Cm = -0.1366     CD =  0.04741   =>   CDf =  0.00412    CDp =  0.04329

 MRCHDU: Convergence failed at  68  side 1    Res =  0.1383E+00
 MRCHDU: Convergence failed at  69  side 1    Res =  0.3200E+00
 Side 1  free  transition at x/c =  0.1780   52
 Side 2  free  transition at x/c =  0.3063   48

  10   rms: 0.5348E+00   max: 0.4407E+01   T at   52  1   RLX: 0.279
       a =  6.000      CL =  0.8249
      Cm = -0.1187     CD =  0.05684   =>   CDf =  0.00440    CDp =  0.05244

 Side 1  free  transition at x/c =  0.1640   51
 Side 2  free  transition at x/c =  0.3085   48

  11   rms: 0.2746E+01   max: -.1395E+02   T at   51  1   RLX: 0.036
       a =  6.000      CL =  0.8762
      Cm = -0.1164     CD =  0.05324   =>   CDf =  0.00422    CDp =  0.04902

 Side 1  free  transition at x/c =  0.1712   52
 Side 2  free  transition at x/c =  0.3119   48

  12   rms: 0.6422E+00   max: -.2765E+01   D at   65  1   RLX: 0.181
       a =  6.000      CL =  0.8921
      Cm = -0.1056     CD =  0.03922   =>   CDf =  0.00485    CDp =  0.03436

 Side 1  free  transition at x/c =  0.1753   52
 Side 2  free  transition at x/c =  0.3152   48

  13   rms: 0.8361E+00   max: -.3159E+01   D at   60  1   RLX: 0.158
       a =  6.000      CL =  0.9286
      Cm = -0.1068     CD =  0.03307   =>   CDf =  0.00546    CDp =  0.02761

 MRCHDU: Convergence failed at  74  side 2    Res =  0.5041E-01
 Side 1  free  transition at x/c =  0.1783   53
 Side 2  free  transition at x/c =  0.3238   48

  14   rms: 0.3651E+00   max: -.1369E+01   D at   72  2   RLX: 0.365
       a =  6.000      CL =  1.0016
      Cm = -0.1077     CD =  0.03103   =>   CDf =  0.00648    CDp =  0.02455

 MRCHDU: Convergence failed at  77  side 1    Res =  0.1088E+01
 MRCHDU: Convergence failed at  78  side 1    Res =  0.7661E+00
 MRCHDU: Convergence failed at  79  side 1    Res =  0.6870E+00
 Side 1  free  transition at x/c =  0.1722   53
 Side 2  free  transition at x/c =  0.3229   48

  15   rms: 0.3626E+00   max: -.1628E+01   D at   59  1   RLX: 0.307
       a =  6.000      CL =  1.0781
      Cm = -0.1325     CD =  0.02943   =>   CDf =  0.00736    CDp =  0.02207

 Side 1  free  transition at x/c =  0.1750   53
 Side 2  free  transition at x/c =  0.3217   48

  16   rms: 0.2615E+00   max: -.1356E+01   D at   57  1   RLX: 0.369
       a =  6.000      CL =  1.0618
      Cm = -0.1217     CD =  0.02634   =>   CDf =  0.00807    CDp =  0.01826

 Side 1  free  transition at x/c =  0.1777   53
 Side 2  free  transition at x/c =  0.3189   48

  17   rms: 0.1912E+00   max: -.1058E+01   D at   56  1   RLX: 0.473
       a =  6.000      CL =  1.0127
      Cm = -0.1073     CD =  0.02520   =>   CDf =  0.00862    CDp =  0.01657

 Side 1  free  transition at x/c =  0.1790   54
 Side 2  free  transition at x/c =  0.3138   47

  18   rms: 0.9305E-01   max: -.6057E+00   D at   56  1   RLX: 0.825
       a =  6.000      CL =  0.9485
      Cm = -0.0918     CD =  0.02524   =>   CDf =  0.00874    CDp =  0.01649

 MRCHDU: Convergence failed at  54  side 1    Res =  0.2551E+01
 MRCHDU: Convergence failed at  55  side 1    Res =  0.2228E+02
 MRCHDU: Convergence failed at  56  side 1    Res =  0.3127E+01
 MRCHDU: Convergence failed at  57  side 1    Res =  0.2887E+01
 MRCHDU: Convergence failed at  58  side 1    Res =  0.2532E+01
 MRCHDU: Convergence failed at  59  side 1    Res =  0.2458E+01
 MRCHDU: Convergence failed at  60  side 1    Res =  0.4919E+01
 MRCHDU: Convergence failed at  61  side 1    Res =  0.5649E+01
 MRCHDU: Convergence failed at  62  side 1    Res =  0.6677E+01
 MRCHDU: Convergence failed at  63  side 1    Res =  0.7154E+01
 MRCHDU: Convergence failed at  64  side 1    Res =  0.7895E+01
 MRCHDU: Convergence failed at  65  side 1    Res =  0.5956E+01
 MRCHDU: Convergence failed at  66  side 1    Res =  0.5727E+01
 MRCHDU: Convergence failed at  67  side 1    Res =  0.7079E+01
 MRCHDU: Convergence failed at  68  side 1    Res =  0.2037E+02
 MRCHDU: Convergence failed at  69  side 1    Res =  0.2415E+02
 MRCHDU: Convergence failed at  70  side 1    Res =  0.3240E+02
 MRCHDU: Convergence failed at  71  side 1    Res =  0.7606E+02
 MRCHDU: Convergence failed at  72  side 1    Res =  0.1097E+03
 MRCHDU: Convergence failed at  73  side 1    Res =  0.3506E+03
 MRCHDU: Convergence failed at  74  side 1    Res =  0.5466E+02
 MRCHDU: Convergence failed at  75  side 1    Res =  0.9460E+02
 MRCHDU: Convergence failed at  76  side 1    Res =  0.1118E+03
 MRCHDU: Convergence failed at  77  side 1    Res =  0.5520E+02
 MRCHDU: Convergence failed at  78  side 1    Res =  0.2968E+02
 MRCHDU: Convergence failed at  79  side 1    Res =  0.2009E+02
 MRCHDU: Convergence failed at  80  side 1    Res =  0.8093E+02
 MRCHDU: Convergence failed at  81  side 1    Res =  0.1301E+03
 MRCHDU: Convergence failed at  82  side 1    Res =  0.3326E+02
 MRCHDU: Convergence failed at  83  side 1    Res =  0.2082E+02
 MRCHDU: Convergence failed at  84  side 1    Res =  0.2172E+02
 MRCHDU: Convergence failed at  85  side 1    Res =  0.4210E+02
 Side 1  free  transition at x/c =  0.1764   53
 Side 2  free  transition at x/c =  0.3091   47

  19   rms: 0.1366E+01   max: 0.7655E+01   D at   83  1   RLX: 0.196
       a =  6.000      CL =  1.9359
      Cm = -0.5105     CD =  0.01002   =>   CDf =  0.00466    CDp =  0.00535

 MRCHDU: Convergence failed at  57  side 1    Res =  0.2239E+00
 MRCHDU: Convergence failed at  58  side 1    Res =  0.1697E+00
 MRCHDU: Convergence failed at  60  side 1    Res =  0.3606E+00
 MRCHDU: Convergence failed at  61  side 1    Res =  0.3119E+00
 MRCHDU: Convergence failed at  63  side 1    Res =  0.4397E+00
 MRCHDU: Convergence failed at  64  side 1    Res =  0.3796E+00
 MRCHDU: Convergence failed at  65  side 1    Res =  0.1659E+00
 MRCHDU: Convergence failed at  67  side 1    Res =  0.3536E+00
 Side 1  free  transition at x/c =  0.1687   52
 Side 2  free  transition at x/c =  0.3067   48

  20   rms: 0.3669E+00   max: 0.8085E+00   D at   86  2   RLX: 0.449
       a =  6.000      CL =  1.1844
      Cm = -0.2450     CD =  0.03835   =>   CDf =  0.00538    CDp =  0.03297

 MRCHDU: Convergence failed at  68  side 1    Res =  0.6260E-01
 Side 1  free  transition at x/c =  0.1717   52
 Side 2  free  transition at x/c =  0.3077   48

  21   rms: 0.3510E+00   max: -.2340E+01   D at   65  1   RLX: 0.214
       a =  6.000      CL =  1.0092
      Cm = -0.1873     CD =  0.04080   =>   CDf =  0.00602    CDp =  0.03478

 MRCHDU: Convergence failed at  68  side 1    Res =  0.9028E-01
 Side 1  free  transition at x/c =  0.1790   53
 Side 2  free  transition at x/c =  0.3072   48

  22   rms: 0.3137E+00   max: -.1904E+01   D at   65  1   RLX: 0.263
       a =  6.000      CL =  0.9330
      Cm = -0.1552     CD =  0.03873   =>   CDf =  0.00627    CDp =  0.03246

 MRCHDU: Convergence failed at  68  side 1    Res =  0.3297E-01
 Side 1  free  transition at x/c =  0.1817   53
 Side 2  free  transition at x/c =  0.3067   48

  23   rms: 0.4279E+00   max: -.2696E+01   D at   65  1   RLX: 0.185
       a =  6.000      CL =  0.8751
      Cm = -0.1369     CD =  0.03832   =>   CDf =  0.00650    CDp =  0.03182

 Side 1  free  transition at x/c =  0.1878   53
 Side 2  free  transition at x/c =  0.3055   48

  24   rms: 0.4147E+00   max: -.2777E+01   D at   60  1   RLX: 0.180
       a =  6.000      CL =  0.8279
      Cm = -0.1270     CD =  0.04048   =>   CDf =  0.00680    CDp =  0.03368

 Side 1  free  transition at x/c =  0.1943   53
 Side 2  free  transition at x/c =  0.3039   49

  25   rms: 0.2352E+00   max: -.1808E+01   D at   61  1   RLX: 0.277
       a =  6.000      CL =  0.7927
      Cm = -0.1070     CD =  0.03709   =>   CDf =  0.00724    CDp =  0.02985
 VISCAL:  Convergence failed
 Calculating wake trajectory ...
 Calculating source influence matrix ...

 Solving BL system ...

 Side 1  free  transition at x/c =  0.1926   52
 Side 2  free  transition at x/c =  0.3036   49

   1   rms: 0.3159E+00   max: 0.1655E+01   T at   52  1   RLX: 0.320
       a =  7.000      CL =  0.8519
      Cm = -0.0937     CD =  0.03338   =>   CDf =  0.00724    CDp =  0.02613

 Side 1  free  transition at x/c =  0.1818   53
 Side 2  free  transition at x/c =  0.3079   48

   2   rms: 0.1074E+01   max: -.4876E+01   D at   71  1   RLX: 0.103
       a =  7.000      CL =  0.9367
      Cm = -0.0934     CD =  0.02820   =>   CDf =  0.00723    CDp =  0.02098

 MRCHDU: Convergence failed at  71  side 1    Res =  0.2182E+00
 Side 1  free  transition at x/c =  0.1799   54
 Side 2  free  transition at x/c =  0.3118   47

   3   rms: 0.2814E+00   max: -.1022E+01   U at   68  1   RLX: 0.367
       a =  7.000      CL =  0.9789
      Cm = -0.0905     CD =  0.02760   =>   CDf =  0.00828    CDp =  0.01931

 MRCHDU: Convergence failed at  68  side 1    Res =  0.6642E+01
 Side 1  free  transition at x/c =  0.1771   53
 Side 2  free  transition at x/c =  0.3149   47

   4   rms: 0.2888E+00   max: -.1445E+01   D at   76  1   RLX: 0.346
       a =  7.000      CL =  1.0897
      Cm = -0.1073     CD =  0.02413   =>   CDf =  0.00859    CDp =  0.01554

 MRCHDU: Convergence failed at  80  side 1    Res =  0.9227E+00
 Side 1  free  transition at x/c =  0.1717   54
 Side 2  free  transition at x/c =  0.3182   46

   5   rms: 0.1330E+00   max: -.7802E+00   D at   74  1   RLX: 0.641
       a =  7.000      CL =  1.0885
      Cm = -0.0974     CD =  0.02383   =>   CDf =  0.00893    CDp =  0.01489

 Side 1  free  transition at x/c =  0.1674   54
 Side 2  free  transition at x/c =  0.3203   47

   6   rms: 0.5690E-01   max: -.3150E+00   D at   74  1
       a =  7.000      CL =  1.0433
      Cm = -0.0863     CD =  0.02668   =>   CDf =  0.00909    CDp =  0.01759

 Side 1  free  transition at x/c =  0.1661   54
 Side 2  free  transition at x/c =  0.3200   47

   7   rms: 0.1403E-01   max: 0.7196E-01   D at   86  1
       a =  7.000      CL =  1.0326
      Cm = -0.0854     CD =  0.02733   =>   CDf =  0.00903    CDp =  0.01830

 Side 1  free  transition at x/c =  0.1657   53
 Side 2  free  transition at x/c =  0.3194   47

   8   rms: 0.5386E-03   max: 0.5903E-02   D at   85  1
       a =  7.000      CL =  1.0323
      Cm = -0.0854     CD =  0.02736   =>   CDf =  0.00905    CDp =  0.01831

 Side 1  free  transition at x/c =  0.1657   53
 Side 2  free  transition at x/c =  0.3194   47

   9   rms: 0.5500E-05   max: -.3187E-04   D at   81  2
       a =  7.000      CL =  1.0323
      Cm = -0.0854     CD =  0.02736   =>   CDf =  0.00905    CDp =  0.01831

 Point added to stored polar  1
 Point written to save file  000100M0.04.log                                 
 Dump file unspecified or not available
 Calculating wake trajectory ...
 Calculating source influence matrix ...

 Solving BL system ...

 Side 1  free  transition at x/c =  0.1657   53
 Side 2  free  transition at x/c =  0.3194   47

   1   rms: 0.1394E+00   max: -.7343E+00   T at   47  2   RLX: 0.681
       a =  8.000      CL =  1.0868
      Cm = -0.0817     CD =  0.02711   =>   CDf =  0.00878    CDp =  0.01834

 Side 1  free  transition at x/c =  0.1620   54
 Side 2  free  transition at x/c =  0.3316   46

   2   rms: 0.4813E-01   max: -.1591E+00   D at   49  2
       a =  8.000      CL =  1.1198
      Cm = -0.0806     CD =  0.02877   =>   CDf =  0.00866    CDp =  0.02011

 Side 1  free  transition at x/c =  0.1597   54
 Side 2  free  transition at x/c =  0.3305   46

   3   rms: 0.2736E-02   max: -.1672E-01   D at   54  1
       a =  8.000      CL =  1.1195
      Cm = -0.0805     CD =  0.02883   =>   CDf =  0.00872    CDp =  0.02011

 Side 1  free  transition at x/c =  0.1598   54
 Side 2  free  transition at x/c =  0.3302   46

   4   rms: 0.1513E-03   max: -.8970E-03   D at   84  1
       a =  8.000      CL =  1.1196
      Cm = -0.0805     CD =  0.02884   =>   CDf =  0.00873    CDp =  0.02011

 Side 1  free  transition at x/c =  0.1597   54
 Side 2  free  transition at x/c =  0.3302   46

   5   rms: 0.2438E-05   max: 0.2226E-04   D at   47  2
       a =  8.000      CL =  1.1196
      Cm = -0.0805     CD =  0.02884   =>   CDf =  0.00873    CDp =  0.02011

 Point added to stored polar  1
 Point written to save file  000100M0.04.log                                 
 Dump file unspecified or not available
 Calculating wake trajectory ...
 Calculating source influence matrix ...

 Solving BL system ...

 Side 1  free  transition at x/c =  0.1597   54
 Side 2  free  transition at x/c =  0.3302   46

   1   rms: 0.1131E+00   max: -.4286E+00   T at   46  2
       a =  9.000      CL =  1.2130
      Cm = -0.0767     CD =  0.03064   =>   CDf =  0.00845    CDp =  0.02219

 Side 1  free  transition at x/c =  0.1540   54
 Side 2  free  transition at x/c =  0.3404   46

   2   rms: 0.8543E-01   max: -.3541E+00   T at   46  2
       a =  9.000      CL =  1.2245
      Cm = -0.0788     CD =  0.03023   =>   CDf =  0.00888    CDp =  0.02135

 Side 1  free  transition at x/c =  0.1540   54
 Side 2  free  transition at x/c =  0.3469   46

   3   rms: 0.1134E-01   max: 0.1612E+00   T at   46  2
       a =  9.000      CL =  1.2229
      Cm = -0.0783     CD =  0.03077   =>   CDf =  0.00890    CDp =  0.02186

 Side 1  free  transition at x/c =  0.1540   54
 Side 2  free  transition at x/c =  0.3435   46

   4   rms: 0.2617E-02   max: -.2581E-01   D at   47  2
       a =  9.000      CL =  1.2225
      Cm = -0.0782     CD =  0.03083   =>   CDf =  0.00894    CDp =  0.02188

 Side 1  free  transition at x/c =  0.1540   54
 Side 2  free  transition at x/c =  0.3432   46

   5   rms: 0.8920E-04   max: 0.1074E-02   T at   46  2
       a =  9.000      CL =  1.2225
      Cm = -0.0782     CD =  0.03083   =>   CDf =  0.00895    CDp =  0.02188

 Point added to stored polar  1
 Point written to save file  000100M0.04.log                                 
 Dump file unspecified or not available
 Calculating wake trajectory ...
 Calculating source influence matrix ...

 Solving BL system ...

 Side 1  free  transition at x/c =  0.1540   54
 Side 2  free  transition at x/c =  0.3432   46

   1   rms: 0.1089E+00   max: -.5113E+00   T at   46  2   RLX: 0.978
       a = 10.000      CL =  1.2887
      Cm = -0.0718     CD =  0.03255   =>   CDf =  0.00832    CDp =  0.02423

 Side 1  free  transition at x/c =  0.1495   56
 Side 2  free  transition at x/c =  0.3559   44

   2   rms: 0.4428E-01   max: -.2535E+00   D at   44  2
       a = 10.000      CL =  1.2943
      Cm = -0.0724     CD =  0.03319   =>   CDf =  0.00845    CDp =  0.02474

 Side 1  free  transition at x/c =  0.1491   56
 Side 2  free  transition at x/c =  0.3556   44

   3   rms: 0.2955E-02   max: 0.2827E-01   D at   45  2
       a = 10.000      CL =  1.2948
      Cm = -0.0724     CD =  0.03325   =>   CDf =  0.00857    CDp =  0.02468

 Side 1  free  transition at x/c =  0.1491   56
 Side 2  free  transition at x/c =  0.3552   44

   4   rms: 0.1103E-03   max: 0.5555E-03   D at   85  1
       a = 10.000      CL =  1.2947
      Cm = -0.0724     CD =  0.03325   =>   CDf =  0.00857    CDp =  0.02468

 Side 1  free  transition at x/c =  0.1491   56
 Side 2  free  transition at x/c =  0.3552   44

   5   rms: 0.2121E-05   max: -.1829E-04   D at   45  2
       a = 10.000      CL =  1.2947
      Cm = -0.0724     CD =  0.03325   =>   CDf =  0.00857    CDp =  0.02468

 Point added to stored polar  1
 Point written to save file  000100M0.04.log                                 
 Dump file unspecified or not available
 Calculating wake trajectory ...
 Calculating source influence matrix ...

 Solving BL system ...

 Side 1  free  transition at x/c =  0.1491   56
 Side 2  free  transition at x/c =  0.3552   44

   1   rms: 0.1080E+00   max: -.4045E+00   T at   44  2
       a = 11.000      CL =  1.3735
      Cm = -0.0676     CD =  0.03576   =>   CDf =  0.00826    CDp =  0.02749

 Side 1  free  transition at x/c =  0.1442   57
 Side 2  free  transition at x/c =  0.3689   44

   2   rms: 0.3180E-01   max: -.1960E+00   D at   57  1
       a = 11.000      CL =  1.3764
      Cm = -0.0681     CD =  0.03548   =>   CDf =  0.00864    CDp =  0.02685

 Side 1  free  transition at x/c =  0.1447   57
 Side 2  free  transition at x/c =  0.3689   44

   3   rms: 0.2999E-02   max: -.1427E-01   D at   86  1
       a = 11.000      CL =  1.3790
      Cm = -0.0684     CD =  0.03554   =>   CDf =  0.00866    CDp =  0.02688

 Side 1  free  transition at x/c =  0.1447   57
 Side 2  free  transition at x/c =  0.3690   44

   4   rms: 0.5171E-04   max: -.2549E-03   D at   86  1
       a = 11.000      CL =  1.3791
      Cm = -0.0684     CD =  0.03555   =>   CDf =  0.00867    CDp =  0.02688

 Point added to stored polar  1
 Point written to save file  000100M0.04.log                                 
 Dump file unspecified or not available
 Calculating wake trajectory ...
 Calculating source influence matrix ...

 Solving BL system ...

 Side 1  free  transition at x/c =  0.1447   57
 Side 2  free  transition at x/c =  0.3690   44

   1   rms: 0.1232E+00   max: -.5574E+00   T at   44  2   RLX: 0.897
       a = 12.000      CL =  1.4719
      Cm = -0.0666     CD =  0.03805   =>   CDf =  0.00834    CDp =  0.02971

 MRCHDU: Convergence failed at  58  side 1    Res =  0.1844E+02
 MRCHDU: Convergence failed at  59  side 1    Res =  0.6667E+01
 MRCHDU: Convergence failed at  60  side 1    Res =  0.1308E+02
 MRCHDU: Convergence failed at  61  side 1    Res =  0.1349E+02
 MRCHDU: Convergence failed at  62  side 1    Res =  0.6714E+01
 MRCHDU: Convergence failed at  63  side 1    Res =  0.7189E+01
 MRCHDU: Convergence failed at  64  side 1    Res =  0.1201E+02
 MRCHDU: Convergence failed at  65  side 1    Res =  0.1606E+02
 MRCHDU: Convergence failed at  66  side 1    Res =  0.3167E+02
 MRCHDU: Convergence failed at  67  side 1    Res =  0.4022E+02
 MRCHDU: Convergence failed at  68  side 1    Res =  0.2682E+02
 MRCHDU: Convergence failed at  69  side 1    Res =  0.4179E+02
 MRCHDU: Convergence failed at  70  side 1    Res =  0.2842E+02
 MRCHDU: Convergence failed at  71  side 1    Res =  0.2753E+02
 MRCHDU: Convergence failed at  72  side 1    Res =  0.3593E+02
 MRCHDU: Convergence failed at  73  side 1    Res =  0.3171E+02
 MRCHDU: Convergence failed at  74  side 1    Res =  0.2581E+02
 MRCHDU: Convergence failed at  75  side 1    Res =  0.3145E+02
 MRCHDU: Convergence failed at  76  side 1    Res =  0.2335E+02
 MRCHDU: Convergence failed at  77  side 1    Res =  0.8215E+02
 MRCHDU: Convergence failed at  78  side 1    Res =  0.9357E+02
 MRCHDU: Convergence failed at  79  side 1    Res =  0.9123E+02
 MRCHDU: Convergence failed at  80  side 1    Res =  0.5762E+03
 MRCHDU: Convergence failed at  81  side 1    Res =  0.1122E+03
 MRCHDU: Convergence failed at  82  side 1    Res =  0.4175E+02
 MRCHDU: Convergence failed at  83  side 1    Res =  0.1539E+03
 MRCHDU: Convergence failed at  84  side 1    Res =  0.3494E+03
 MRCHDU: Convergence failed at  85  side 1    Res =  0.1534E+03
 MRCHDU: Convergence failed at  86  side 1    Res =  0.2549E+02
 MRCHDU: Convergence failed at  87  side 1    Res =  0.6666E+02
 MRCHDU: Convergence failed at  88  side 1    Res =  0.3866E+04
 MRCHDU: Convergence failed at  89  side 1    Res =  0.3702E+03
 MRCHDU: Convergence failed at  90  side 1    Res =  0.5176E+03
 MRCHDU: Convergence failed at  91  side 1    Res =  0.7389E+03
 MRCHDU: Convergence failed at  92  side 1    Res =  0.1463E+04
 Side 1  free  transition at x/c =  0.1415   57
 Side 2  free  transition at x/c =  0.3818   43

   2   rms: 0.2203E+01   max: 0.1098E+02   D at   89  1   RLX: 0.137
       a = 12.000      CL =  3.3713
      Cm = -0.8337     CD =  0.01000   =>   CDf =  0.00451    CDp =  0.00549

 MRCHDU: Convergence failed at  82  side 1    Res =  0.3759E+00
 MRCHDU: Convergence failed at  83  side 1    Res =  0.3064E+00
 MRCHDU: Convergence failed at  84  side 1    Res =  0.1918E+00
 MRCHDU: Convergence failed at  86  side 1    Res =  0.1516E-02
 MRCHDU: Convergence failed at  74  side 2    Res =  0.3233E+02
 MRCHDU: Convergence failed at  75  side 2    Res =  0.2245E+01
 MRCHDU: Convergence failed at  76  side 2    Res =  0.3996E+01
 MRCHDU: Convergence failed at  77  side 2    Res =  0.2829E+02
 Side 1  free  transition at x/c =  0.1350   57
 Side 2  free  transition at x/c =  0.3792   43

   3   rms: 0.5736E+00   max: -.1084E+01   T at   43  2   RLX: 0.357
       a = 12.000      CL =  2.3124
      Cm = -0.4195     CD =  0.04158   =>   CDf =  0.00562    CDp =  0.03596

 Side 1  free  transition at x/c =  0.1337   57
 Side 2  free  transition at x/c =  0.3916   43

   4   rms: 0.3506E+00   max: 0.6785E+00   D at   77  2   RLX: 0.582
       a = 12.000      CL =  1.9365
      Cm = -0.2418     CD =  0.06008   =>   CDf =  0.00558    CDp =  0.05450

 Side 1  free  transition at x/c =  0.1320   57
 Side 2  free  transition at x/c =  0.3970   43

   5   rms: 0.1770E+01   max: 0.7364E+01   D at   86  1   RLX: 0.199
       a = 12.000      CL =  1.3421
      Cm = -0.1799     CD =  0.08317   =>   CDf =  0.00548    CDp =  0.07769

 MRCHDU: Convergence failed at  83  side 1    Res =  0.4034E+01
 MRCHDU: Convergence failed at  46  side 2    Res =  0.1329E+02
 MRCHDU: Convergence failed at  47  side 2    Res =  0.1892E+02
 MRCHDU: Convergence failed at  48  side 2    Res =  0.2581E+02
 MRCHDU: Convergence failed at  49  side 2    Res =  0.3515E+02
 MRCHDU: Convergence failed at  50  side 2    Res =  0.1023E+03
 MRCHDU: Convergence failed at  51  side 2    Res =  0.8325E+02
 MRCHDU: Convergence failed at  52  side 2    Res =  0.4620E+02
 MRCHDU: Convergence failed at  53  side 2    Res =  0.3683E+02
 MRCHDU: Convergence failed at  54  side 2    Res =  0.3375E+02
 MRCHDU: Convergence failed at  55  side 2    Res =  0.3236E+02
 MRCHDU: Convergence failed at  56  side 2    Res =  0.3437E+02
 MRCHDU: Convergence failed at  57  side 2    Res =  0.3856E+02
 MRCHDU: Convergence failed at  58  side 2    Res =  0.4445E+02
 MRCHDU: Convergence failed at  59  side 2    Res =  0.5798E+02
 MRCHDU: Convergence failed at  60  side 2    Res =  0.1164E+03
 MRCHDU: Convergence failed at  61  side 2    Res =  0.7632E+03
 MRCHDU: Convergence failed at  62  side 2    Res =  0.1167E+03
 MRCHDU: Convergence failed at  63  side 2    Res =  0.4458E+02
 MRCHDU: Convergence failed at  64  side 2    Res =  0.6995E+01
 MRCHDU: Convergence failed at  65  side 2    Res =  0.6248E+01
 MRCHDU: Convergence failed at  66  side 2    Res =  0.1211E+02
 MRCHDU: Convergence failed at  82  side 2    Res =  0.3866E+01
 MRCHDU: Convergence failed at  83  side 2    Res =  0.1652E+02
 MRCHDU: Convergence failed at  84  side 2    Res =  0.4398E+01
 MRCHDU: Convergence failed at  85  side 2    Res =  0.2789E+01
 MRCHDU: Convergence failed at  86  side 2    Res =  0.2560E+01
 MRCHDU: Convergence failed at  87  side 2    Res =  0.3980E+01
 MRCHDU: Convergence failed at  88  side 2    Res =  0.7641E+01
 MRCHDU: Convergence failed at  89  side 2    Res =  0.4797E+02
 MRCHDU: Convergence failed at  90  side 2    Res =  0.8838E+01
 MRCHDU: Convergence failed at  91  side 2    Res =  0.4458E+01
 MRCHDU: Convergence failed at  92  side 2    Res =  0.3162E+01
 MRCHDU: Convergence failed at  93  side 2    Res =  0.2524E+01
 Side 1  free  transition at x/c =  0.1348   55
 Side 2  free  transition at x/c =  0.3732   45

   6   rms: 0.6812E+00   max: 0.4872E+01   D at   94  2   RLX: 0.308
       a = 12.000      CL =  0.8975
      Cm = -0.0801     CD =  0.09407   =>   CDf =  0.00393    CDp =  0.09014

 MRCHDU: Convergence failed at  46  side 2    Res =  0.8656E+02
 MRCHDU: Convergence failed at  64  side 2    Res =  0.1162E+00
 MRCHDU: Convergence failed at  65  side 2    Res =  0.1858E+00
 MRCHDU: Convergence failed at  66  side 2    Res =  0.2358E+00
 MRCHDU: Convergence failed at  67  side 2    Res =  0.2790E+00
 MRCHDU: Convergence failed at  68  side 2    Res =  0.3806E+00
 MRCHDU: Convergence failed at  69  side 2    Res =  0.5640E+00
 MRCHDU: Convergence failed at  70  side 2    Res =  0.7952E+00
 MRCHDU: Convergence failed at  71  side 2    Res =  0.9770E+00
 MRCHDU: Convergence failed at  72  side 2    Res =  0.1102E+01
 MRCHDU: Convergence failed at  73  side 2    Res =  0.1261E+01
 Side 1  free  transition at x/c =  0.1347   54
 Side 2  free  transition at x/c =  0.3512   45

   7   rms: 0.1636E+01   max: -.4595E+01   T at   45  2   RLX: 0.109
       a = 12.000      CL =  0.7773
      Cm = -0.1168     CD =  0.16749   =>   CDf =  0.00303    CDp =  0.16446

 Side 1  free  transition at x/c =  0.1355   52
 Side 2  free  transition at x/c =  0.3704   48

   8   rms: 0.5710E+00   max: -.4225E+01   D at   72  2   RLX: 0.118
       a = 12.000      CL =  0.8237
      Cm = -0.1274     CD =  0.13587   =>   CDf =  0.00325    CDp =  0.13262

 Side 1  free  transition at x/c =  0.1361   52
 Side 2  free  transition at x/c =  0.3750   48

   9   rms: 0.1016E+01   max: -.5751E+01   D at   71  2   RLX: 0.087
       a = 12.000      CL =  0.8902
      Cm = -0.1290     CD =  0.12835   =>   CDf =  0.00329    CDp =  0.12506

 Side 1  free  transition at x/c =  0.1376   53
 Side 2  free  transition at x/c =  0.3857   47

  10   rms: 0.2277E+01   max: -.1672E+02   D at   70  2   RLX: 0.030
       a = 12.000      CL =  0.9003
      Cm = -0.1330     CD =  0.12618   =>   CDf =  0.00358    CDp =  0.12260

 Side 1  free  transition at x/c =  0.1375   53
 Side 2  free  transition at x/c =  0.4026   48

  11   rms: 0.1031E+01   max: -.4009E+01   D at   70  2   RLX: 0.125
       a = 12.000      CL =  0.8329
      Cm = -0.1349     CD =  0.13103   =>   CDf =  0.00395    CDp =  0.12708

 Side 1  free  transition at x/c =  0.1352   52
 Side 2  free  transition at x/c =  0.3995   49

  12   rms: 0.6615E+00   max: -.2598E+01   D at   68  2   RLX: 0.192
       a = 12.000      CL =  0.9045
      Cm = -0.1241     CD =  0.12089   =>   CDf =  0.00391    CDp =  0.11698

 Side 1  free  transition at x/c =  0.1372   53
 Side 2  free  transition at x/c =  0.3988   48

  13   rms: 0.6216E+00   max: -.2504E+01   D at   50  2   RLX: 0.200
       a = 12.000      CL =  0.8144
      Cm = -0.1164     CD =  0.12938   =>   CDf =  0.00449    CDp =  0.12489

 Side 1  free  transition at x/c =  0.1351   52
 Side 2  free  transition at x/c =  0.3853   48

  14   rms: 0.2001E+01   max: 0.6070E+01   D at   97  2   RLX: 0.129
       a = 12.000      CL =  0.5535
      Cm = -0.1066     CD =  0.14711   =>   CDf =  0.00455    CDp =  0.14256

 Side 1  free  transition at x/c =  0.1337   50
 Side 2  free  transition at x/c =  0.3577   48

  15   rms: 0.2300E+00   max: -.1099E+01   D at   71  2   RLX: 0.455
       a = 12.000      CL =  0.6067
      Cm = -0.0865     CD =  0.12845   =>   CDf =  0.00412    CDp =  0.12433

 Side 1  free  transition at x/c =  0.1331   50
 Side 2  free  transition at x/c =  0.3493   48

  16   rms: 0.1316E+00   max: -.6753E+00   D at   71  2   RLX: 0.740
       a = 12.000      CL =  0.6810
      Cm = -0.0806     CD =  0.13019   =>   CDf =  0.00429    CDp =  0.12589

 Side 1  free  transition at x/c =  0.1320   51
 Side 2  free  transition at x/c =  0.3428   47

  17   rms: 0.8073E-01   max: -.4482E+00   D at   96  2
       a = 12.000      CL =  0.7618
      Cm = -0.0866     CD =  0.13329   =>   CDf =  0.00482    CDp =  0.12847

 Side 1  free  transition at x/c =  0.1297   51
 Side 2  free  transition at x/c =  0.3422   47

  18   rms: 0.4243E-01   max: 0.2023E+00   D at   92  2
       a = 12.000      CL =  0.7116
      Cm = -0.0810     CD =  0.12886   =>   CDf =  0.00506    CDp =  0.12380

 Side 1  free  transition at x/c =  0.1306   51
 Side 2  free  transition at x/c =  0.3395   46

  19   rms: 0.4558E-02   max: 0.4513E-01   D at   92  2
       a = 12.000      CL =  0.7096
      Cm = -0.0811     CD =  0.12887   =>   CDf =  0.00496    CDp =  0.12391

 Side 1  free  transition at x/c =  0.1305   51
 Side 2  free  transition at x/c =  0.3391   46

  20   rms: 0.4985E-03   max: 0.9225E-02   D at   92  2
       a = 12.000      CL =  0.7094
      Cm = -0.0810     CD =  0.12879   =>   CDf =  0.00495    CDp =  0.12384

 Side 1  free  transition at x/c =  0.1305   51
 Side 2  free  transition at x/c =  0.3390   46

  21   rms: 0.9432E-05   max: 0.9718E-04   D at   97  2
       a = 12.000      CL =  0.7094
      Cm = -0.0810     CD =  0.12879   =>   CDf =  0.00495    CDp =  0.12384

 Point added to stored polar  1
 Point written to save file  000100M0.04.log                                 
 Dump file unspecified or not available
 Calculating wake trajectory ...
 Calculating source influence matrix ...

 Solving BL system ...

 Side 1  free  transition at x/c =  0.1305   51
 Side 2  free  transition at x/c =  0.3390   46

   1   rms: 0.2241E+00   max: -.8200E+00   T at   46  2   RLX: 0.405
       a = 13.000      CL =  0.7777
      Cm = -0.0765     CD =  0.12115   =>   CDf =  0.00478    CDp =  0.11637

 Side 1  free  transition at x/c =  0.1320   52
 Side 2  free  transition at x/c =  0.3484   46

   2   rms: 0.9098E-01   max: 0.6770E+00   D at   46  2
       a = 13.000      CL =  0.8401
      Cm = -0.0740     CD =  0.11989   =>   CDf =  0.00487    CDp =  0.11503

 Side 1  free  transition at x/c =  0.1312   53
 Side 2  free  transition at x/c =  0.3563   45

   3   rms: 0.9852E-02   max: 0.6972E-01   D at   45  2
       a = 13.000      CL =  0.8355
      Cm = -0.0746     CD =  0.12146   =>   CDf =  0.00501    CDp =  0.11645

 Side 1  free  transition at x/c =  0.1309   53
 Side 2  free  transition at x/c =  0.3557   45

   4   rms: 0.5334E-03   max: 0.3247E-02   D at   94  2
       a = 13.000      CL =  0.8350
      Cm = -0.0746     CD =  0.12134   =>   CDf =  0.00498    CDp =  0.11636

 Side 1  free  transition at x/c =  0.1309   53
 Side 2  free  transition at x/c =  0.3556   45

   5   rms: 0.2145E-04   max: 0.2665E-03   D at   95  2
       a = 13.000      CL =  0.8350
      Cm = -0.0746     CD =  0.12133   =>   CDf =  0.00498    CDp =  0.11634

 Point added to stored polar  1
 Point written to save file  000100M0.04.log                                 
 Dump file unspecified or not available
 Calculating wake trajectory ...
 Calculating source influence matrix ...

 Solving BL system ...

 Side 1  free  transition at x/c =  0.1309   53
 Side 2  free  transition at x/c =  0.3556   45

   1   rms: 0.1380E+00   max: -.4771E+00   T at   45  2   RLX: 0.383
       a = 14.000      CL =  0.8735
      Cm = -0.0725     CD =  0.11938   =>   CDf =  0.00500    CDp =  0.11438

 Side 1  free  transition at x/c =  0.1307   53
 Side 2  free  transition at x/c =  0.3611   45

   2   rms: 0.8884E-01   max: -.3532E+00   T at   45  2
       a = 14.000      CL =  0.9433
      Cm = -0.0688     CD =  0.11622   =>   CDf =  0.00486    CDp =  0.11136

 Side 1  free  transition at x/c =  0.1303   54
 Side 2  free  transition at x/c =  0.3735   45

   3   rms: 0.3752E-01   max: 0.4652E+00   D at   45  2
       a = 14.000      CL =  0.9453
      Cm = -0.0691     CD =  0.11689   =>   CDf =  0.00519    CDp =  0.11170

 Side 1  free  transition at x/c =  0.1300   54
 Side 2  free  transition at x/c =  0.3723   45

   4   rms: 0.5574E-02   max: 0.5261E-01   D at   45  2
       a = 14.000      CL =  0.9454
      Cm = -0.0691     CD =  0.11684   =>   CDf =  0.00513    CDp =  0.11170

 Side 1  free  transition at x/c =  0.1300   54
 Side 2  free  transition at x/c =  0.3718   45

   5   rms: 0.2432E-04   max: -.2371E-03   D at   46  2
       a = 14.000      CL =  0.9454
      Cm = -0.0691     CD =  0.11683   =>   CDf =  0.00513    CDp =  0.11170

 Point added to stored polar  1
 Point written to save file  000100M0.04.log                                 
 Dump file unspecified or not available
 Calculating wake trajectory ...
 Calculating source influence matrix ...

 Solving BL system ...

 Side 1  free  transition at x/c =  0.1300   54
 Side 2  free  transition at x/c =  0.3718   45

   1   rms: 0.1419E+00   max: -.5418E+00   T at   45  2   RLX: 0.381
       a = 15.000      CL =  0.9867
      Cm = -0.0666     CD =  0.11456   =>   CDf =  0.00493    CDp =  0.10963

 Side 1  free  transition at x/c =  0.1296   55
 Side 2  free  transition at x/c =  0.3775   44

   2   rms: 0.9125E-01   max: -.3359E+00   T at   44  2
       a = 15.000      CL =  1.0612
      Cm = -0.0623     CD =  0.11089   =>   CDf =  0.00494    CDp =  0.10594

 Side 1  free  transition at x/c =  0.1286   56
 Side 2  free  transition at x/c =  0.3892   43

   3   rms: 0.1133E-01   max: -.8712E-01   D at   44  2
       a = 15.000      CL =  1.0621
      Cm = -0.0625     CD =  0.11166   =>   CDf =  0.00533    CDp =  0.10632

 Side 1  free  transition at x/c =  0.1285   56
 Side 2  free  transition at x/c =  0.3892   43

   4   rms: 0.2908E-03   max: -.2104E-02   D at   92  2
       a = 15.000      CL =  1.0622
      Cm = -0.0624     CD =  0.11173   =>   CDf =  0.00534    CDp =  0.10638

 Side 1  free  transition at x/c =  0.1285   56
 Side 2  free  transition at x/c =  0.3892   43

   5   rms: 0.1439E-04   max: 0.6807E-04   D at   65  1
       a = 15.000      CL =  1.0622
      Cm = -0.0625     CD =  0.11173   =>   CDf =  0.00534    CDp =  0.10639

 Point added to stored polar  1
 Point written to save file  000100M0.04.log                                 
 Dump file unspecified or not available

.OPERva   c>  
 XFOIL   c>  
0.1
resp: 
 ===================================================
  XFOIL Version 6.97
  Copyright (C) 2000   Mark Drela, Harold Youngren

  This software comes with ABSOLUTELY NO WARRANTY,
    subject to the GNU General Public License.

  Caveat computor
 ===================================================

 File  xfoil.def  not found

   QUIT    Exit program

  .OPER    Direct operating point(s)
  .MDES    Complex mapping design routine
  .QDES    Surface speed design routine
  .GDES    Geometry design routine

   SAVE f  Write airfoil to labeled coordinate file
   PSAV f  Write airfoil to plain coordinate file
   ISAV f  Write airfoil to ISES coordinate file
   MSAV f  Write airfoil to MSES coordinate file
   REVE    Reverse written-airfoil node ordering
   DELI i  Change written-airfoil file delimiters

   LOAD f  Read buffer airfoil from coordinate file
   NACA i  Set NACA 4,5-digit airfoil and buffer airfoil
   INTE    Set buffer airfoil by interpolating two airfoils
   NORM    Buffer airfoil normalization toggle
   HALF    Halve the number of points in buffer airfoil
   XYCM rr Change CM reference location, currently  0.25000 0.00000

   BEND    Display structural properties of current airfoil

   PCOP    Set current-airfoil panel nodes directly from buffer airfoil points
   PANE    Set current-airfoil panel nodes ( 160 ) based on curvature
  .PPAR    Show/change paneling

  .PLOP    Plotting options

   WDEF f  Write  current-settings file
   RDEF f  Reread current-settings file
   NAME s  Specify new airfoil name
   NINC    Increment name version number

   Z       Zoom    | (available in all menus)
   U       Unzoom  | 

 XFOIL   c>   ...............................................

  G raphics-enable flag:        T
  S ize of plot object          10.00"
  A spect ratio of plot object   0.5500
  P age dimensions              11.00 x  8.50"
  M argins from page edges       0.00",  0.00"
  F ont size (relative)          0.0150
  W indow/screen size fraction   0.8000
  B lowup input method:        Cursor    
  O rientation of plot:        Landscape 
  C olor PostScript output?     F

      Option, Value   (or <Return>)    c>   ...............................................

  G raphics-enable flag:        F
  S ize of plot object          10.00"
  A spect ratio of plot object   0.5500
  P age dimensions              11.00 x  8.50"
  M argins from page edges       0.00",  0.00"
  F ont size (relative)          0.0150
  W indow/screen size fraction   0.8000
  B lowup input method:        Cursor    
  O rientation of plot:        Landscape 
  C olor PostScript output?     F

      Option, Value   (or <Return>)    c>  
 XFOIL   c>  
 Labeled airfoil file.  Name:  000100                                          

 Number of input coordinate points: 200
 Clockwise ordering
 Max thickness =     0.258505  at x =   0.169
 Max camber    =     0.043201  at x =   0.624

  LE  x,y  =   0.00000  -0.00001  |   Chord =   0.99988
  TE  x,y  =   0.99988   0.00003  |

 Current airfoil nodes set from buffer airfoil nodes ( 200 )

 XFOIL   c>  
 You are working with the buffer airfoil

.GDES   c>  
  i       x        y      angle
   2   0.9990   0.0002   -0.057
   3   0.9978   0.0005   -0.120
   4   0.9961   0.0008   -0.132
   5   0.9938   0.0013   -0.194
   6   0.9911   0.0019   -0.190
   7   0.9880   0.0026   -0.249
   8   0.9843   0.0035   -0.247
   9   0.9801   0.0044   -0.279
  10   0.9755   0.0055   -0.272
  11   0.9704   0.0068   -0.305
  12   0.9649   0.0081   -0.287
  13   0.9589   0.0097   -0.302
  14   0.9524   0.0113   -0.294
  15   0.9455   0.0132   -0.275
  16   0.9382   0.0152   -0.263
  17   0.9304   0.0173   -0.248
  18   0.9222   0.0196   -0.212
  19   0.9135   0.0220   -0.196
  20   0.9045   0.0246   -0.155
  21   0.8951   0.0274   -0.127
  22   0.8853   0.0302   -0.077
  23   0.8751   0.0332   -0.040
  24   0.8645   0.0363   -0.001
  25   0.8536   0.0396    0.045
  26   0.8423   0.0429    0.098
  27   0.8307   0.0463    0.138
  28   0.8187   0.0497    0.185
  29   0.8065   0.0532    0.239
  30   0.7939   0.0568    0.280
  31   0.7810   0.0603    0.328
  32   0.7679   0.0639    0.364
  33   0.7545   0.0674    0.411
  34   0.7409   0.0709    0.446
  35   0.7270   0.0743    0.476
  36   0.7129   0.0777    0.514
  37   0.6986   0.0810    0.530
  38   0.6841   0.0841    0.558
  39   0.6694   0.0872    0.574
  40   0.6545   0.0902    0.581
  41   0.6395   0.0930    0.593
  42   0.6243   0.0957    0.589
  43   0.6091   0.0982    0.588
  44   0.5937   0.1006    0.574
  45   0.5782   0.1029    0.564
  46   0.5627   0.1050    0.547
  47   0.5471   0.1070    0.518
  48   0.5314   0.1088    0.496
  49   0.5157   0.1105    0.468
  50   0.5000   0.1121    0.430
  51   0.4843   0.1135    0.404
  52   0.4686   0.1149    0.365
  53   0.4529   0.1161    0.333
  54   0.4373   0.1173    0.298
  55   0.4218   0.1183    0.269
  56   0.4063   0.1193    0.242
  57   0.3909   0.1202    0.215
  58   0.3757   0.1211    0.197
  59   0.3605   0.1218    0.182
  60   0.3455   0.1226    0.172
  61   0.3306   0.1232    0.173
  62   0.3159   0.1239    0.178
  63   0.3014   0.1244    0.201
  64   0.2871   0.1250    0.225
  65   0.2730   0.1254    0.267
  66   0.2591   0.1258    0.313
  67   0.2455   0.1261    0.374
  68   0.2321   0.1263    0.454
  69   0.2190   0.1264    0.544
  70   0.2061   0.1264    0.646
  71   0.1935   0.1262    0.766
  72   0.1813   0.1259    0.903
  73   0.1693   0.1254    1.057
  74   0.1577   0.1247    1.221
  75   0.1464   0.1237    1.411
  76   0.1355   0.1226    1.605
  77   0.1249   0.1211    1.835
  78   0.1147   0.1194    2.057
  79   0.1049   0.1174    2.302
  80   0.0955   0.1151    2.555
  81   0.0865   0.1124    2.807
  82   0.0778   0.1094    3.072
  83   0.0696   0.1060    3.303
  84   0.0618   0.1023    3.539
  85   0.0545   0.0981    3.740
  86   0.0476   0.0937    3.916
  87   0.0411   0.0888    4.033
  88   0.0351   0.0836    4.136
  89   0.0296   0.0781    4.172
  90   0.0245   0.0722    4.179
  91   0.0199   0.0660    4.155
  92   0.0157   0.0594    4.105
  93   0.0120   0.0527    4.010
  94   0.0089   0.0456    3.948
  95   0.0062   0.0384    3.852
  96   0.0039   0.0309    3.770
  97   0.0022   0.0233    3.710
  98   0.0010   0.0156    3.651
  99   0.0002   0.0078    3.620
 100   0.0000   0.0000    3.612
 101   0.0002  -0.0078    3.604
 102   0.0010  -0.0157    3.606
 103   0.0022  -0.0234    3.619
 104   0.0039  -0.0311    3.616
 105   0.0062  -0.0387    3.624
 106   0.0089  -0.0462    3.646
 107   0.0120  -0.0535    3.634
 108   0.0157  -0.0606    3.668
 109   0.0199  -0.0676    3.660
 110   0.0245  -0.0743    3.677
 111   0.0296  -0.0808    3.670
 112   0.0351  -0.0870    3.680
 113   0.0411  -0.0929    3.658
 114   0.0476  -0.0985    3.662
 115   0.0545  -0.1037    3.626
 116   0.0618  -0.1086    3.582
 117   0.0696  -0.1131    3.539
 118   0.0778  -0.1172    3.471
 119   0.0865  -0.1208    3.391
 120   0.0955  -0.1240    3.291
 121   0.1049  -0.1268    3.193
 122   0.1147  -0.1290    3.063
 123   0.1249  -0.1309    2.938
 124   0.1355  -0.1322    2.789
 125   0.1464  -0.1330    2.639
 126   0.1577  -0.1333    2.484
 127   0.1693  -0.1331    2.320
 128   0.1813  -0.1325    2.160
 129   0.1935  -0.1313    2.000
 130   0.2061  -0.1297    1.824
 131   0.2190  -0.1277    1.673
 132   0.2321  -0.1251    1.510
 133   0.2455  -0.1222    1.355
 134   0.2591  -0.1189    1.198
 135   0.2730  -0.1152    1.052
 136   0.2871  -0.1112    0.905
 137   0.3014  -0.1069    0.766
 138   0.3159  -0.1022    0.627
 139   0.3306  -0.0974    0.498
 140   0.3455  -0.0924    0.372
 141   0.3605  -0.0872    0.242
 142   0.3757  -0.0819    0.127
 143   0.3909  -0.0765    0.006
 144   0.4063  -0.0710   -0.098
 145   0.4218  -0.0656   -0.213
 146   0.4373  -0.0602   -0.308
 147   0.4529  -0.0548   -0.413
 148   0.4686  -0.0496   -0.499
 149   0.4843  -0.0445   -0.586
 150   0.5000  -0.0396   -0.670
 151   0.5157  -0.0349   -0.745
 152   0.5314  -0.0304   -0.805
 153   0.5471  -0.0262   -0.871
 154   0.5627  -0.0222   -0.921
 155   0.5782  -0.0185   -0.961
 156   0.5937  -0.0151   -0.994
 157   0.6091  -0.0120   -1.021
 158   0.6243  -0.0093   -1.030
 159   0.6395  -0.0068   -1.033
 160   0.6545  -0.0046   -1.033
 161   0.6694  -0.0027   -1.010
 162   0.6841  -0.0011   -0.989
 163   0.6986   0.0003   -0.957
 164   0.7129   0.0014   -0.906
 165   0.7270   0.0022   -0.867
 166   0.7409   0.0028   -0.799
 167   0.7545   0.0032   -0.745
 168   0.7679   0.0035   -0.674
 169   0.7810   0.0035   -0.604
 170   0.7939   0.0035   -0.526
 171   0.8065   0.0033   -0.454
 172   0.8187   0.0030   -0.373
 173   0.8307   0.0027   -0.292
 174   0.8423   0.0023   -0.220
 175   0.8536   0.0019   -0.147
 176   0.8645   0.0015   -0.067
 177   0.8751   0.0010   -0.001
 178   0.8853   0.0006    0.066
 179   0.8951   0.0002    0.123
 180   0.9045  -0.0002    0.190
 181   0.9135  -0.0005    0.232
 182   0.9222  -0.0007    0.281
 183   0.9304  -0.0009    0.317
 184   0.9382  -0.0011    0.346
 185   0.9455  -0.0012    0.380
 186   0.9524  -0.0012    0.387
 187   0.9589  -0.0013    0.398
 188   0.9649  -0.0012    0.401
 189   0.9704  -0.0011    0.396
 190   0.9755  -0.0010    0.390
 191   0.9801  -0.0009    0.357
 192   0.9843  -0.0008    0.358
 193   0.9880  -0.0006    0.287
 194   0.9911  -0.0005    0.310
 195   0.9938  -0.0004    0.216
 196   0.9961  -0.0002    0.209
 197   0.9978  -0.0001    0.151
 198   0.9990  -0.0001    0.120
 199   0.9998  -0.0000   -0.082

 Maximum panel corner angle =  4.179   at  i,x,y  =  90   0.0245   0.0722

 Enter corner angle criterion for refinement (deg):   2.089
 Enter type of spline parameter (1=uniform, 2=arclength):   1
 Enter refinement x limits:  -0.10000   1.10000
 Number of points added:          100
 Max thickness =     0.258529  at x =   0.173
 Max camber    =     0.043200  at x =   0.624

 Maximum panel corner angle =  1.835   at  i,x,y  =  77   0.1249   0.1211

.GDES   c>  
 Buffer airfoil is not identical to current airfoil

 XFOIL   c>  
 Blunt trailing edge.  Gap =  0.00025

 Paneling parameters used...
   Number of panel nodes       160
   Panel bunching parameter    1.000
   TE/LE panel density ratio   0.150
   Refined-area/LE panel density ratio    0.200
   Top    side refined area x/c limits  1.000 1.000
   Bottom side refined area x/c limits  1.000 1.000

 XFOIL   c>  
.OPERi   c>   Current iteration limit:          20

Enter new iteration limit   i>  
Enter new iteration limit   i>  
Enter new iteration limit   i>  
.OPERi   c>  
 M  =    0.0000
 Re =  0.3000E+06

.OPERv   c>  
 Sonic Cp =    -66.86      Sonic Q/Qinf =     9.138


.OPERv   c>  
 Polar  1 newly created for accumulation
 Airfoil archived with polar: 000100                                          

Enter  polar save filename  OR  <return> for no file   s>  
 New polar save file available

Enter  polar dump filename  OR  <return> for no file   s>  
 Polar dump file will NOT be written

 Polar accumulation enabled

.OPERva   c>   Calculating unit vorticity distributions ...
 Calculating wake trajectory ...
 Calculating source influence matrix ...

 Solving BL system ...

 Initializing BL ...
    side            1  ...
 MRCHUE: Inverse mode at  43     Hk =   4.226
 MRCHUE: Inverse mode at  44     Hk =   4.973
 MRCHUE: Inverse mode at  45     Hk =   5.740
 MRCHUE: Inverse mode at  46     Hk =   6.539
 MRCHUE: Inverse mode at  47     Hk =   7.382
 MRCHUE: Inverse mode at  48     Hk =   8.282
 MRCHUE: Inverse mode at  49     Hk =   9.254
 MRCHUE: Inverse mode at  50     Hk =   6.733
 MRCHUE: Inverse mode at  51     Hk =   2.926
 MRCHUE: Inverse mode at  76     Hk =   2.500
 MRCHUE: Inverse mode at  77     Hk =   2.500
 MRCHUE: Inverse mode at  78     Hk =   2.500
 MRCHUE: Inverse mode at  79     Hk =   2.500
 MRCHUE: Convergence failed at  80  side 1    Res =  0.1280E+02
    side            2  ...
 MRCHUE: Inverse mode at  43     Hk =   3.955
 MRCHUE: Inverse mode at  44     Hk =   4.671
 MRCHUE: Inverse mode at  45     Hk =   5.395
 MRCHUE: Inverse mode at  46     Hk =   6.137
 MRCHUE: Inverse mode at  47     Hk =   6.906
 MRCHUE: Inverse mode at  48     Hk =   7.710
 MRCHUE: Inverse mode at  49     Hk =   8.560
 MRCHUE: Inverse mode at  50     Hk =   9.467
 MRCHUE: Inverse mode at  51     Hk =   6.411
 MRCHUE: Inverse mode at  52     Hk =   3.247
 MRCHUE: Inverse mode at  53     Hk =   2.500
 MRCHUE: Inverse mode at  54     Hk =   2.500
 MRCHUE: Inverse mode at  57     Hk =   2.500
 MRCHUE: Inverse mode at  58     Hk =   2.500
 MRCHUE: Inverse mode at  59     Hk =   2.500
 MRCHUE: Inverse mode at  60     Hk =   2.500
 MRCHUE: Inverse mode at  61     Hk =   2.500
 MRCHUE: Inverse mode at  62     Hk =   2.500
 MRCHUE: Inverse mode at  63     Hk =   2.500
 MRCHUE: Inverse mode at  64     Hk =   2.500
 MRCHUE: Inverse mode at  65     Hk =   2.500
 MRCHUE: Inverse mode at  66     Hk =   2.500
 MRCHUE: Inverse mode at  67     Hk =   2.500
 MRCHUE: Inverse mode at  68     Hk =   2.500
 MRCHUE: Inverse mode at  69     Hk =   2.500
 MRCHUE: Inverse mode at  70     Hk =   2.500
 MRCHUE: Inverse mode at  71     Hk =   2.500
[...]
 Side 1  free  transition at x/c =  0.1340   50
 Side 2  free  transition at x/c =  0.3089   47

  12   rms: 0.2290E+00   max: -.1145E+01   D at   71  2   RLX: 0.437
       a = 12.000      CL =  0.6651
      Cm = -0.1120     CD =  0.16090   =>   CDf =  0.00311    CDp =  0.15779

 Side 1  free  transition at x/c =  0.1345   51
 Side 2  free  transition at x/c =  0.3171   46

  13   rms: 0.1998E+00   max: -.9418E+00   T at   47  2   RLX: 0.531
       a = 12.000      CL =  0.6541
      Cm = -0.1081     CD =  0.16201   =>   CDf =  0.00336    CDp =  0.15865

 Side 1  free  transition at x/c =  0.1347   51
 Side 2  free  transition at x/c =  0.3146   46

  14   rms: 0.2740E+00   max: 0.3302E+01   T at   46  2   RLX: 0.304
       a = 12.000      CL =  0.6067
      Cm = -0.0946     CD =  0.16625   =>   CDf =  0.00337    CDp =  0.16288

 Side 1  free  transition at x/c =  0.1350   50
 Side 2  free  transition at x/c =  0.2996   47

  15   rms: 0.1712E+00   max: -.8616E+00   D at   70  2   RLX: 0.580
       a = 12.000      CL =  0.6315
      Cm = -0.1011     CD =  0.16348   =>   CDf =  0.00288    CDp =  0.16060

 Side 1  free  transition at x/c =  0.1354   51
 Side 2  free  transition at x/c =  0.3018   46

  16   rms: 0.1707E+00   max: -.9120E+00   D at   69  2   RLX: 0.548
       a = 12.000      CL =  0.6503
      Cm = -0.1080     CD =  0.16279   =>   CDf =  0.00321    CDp =  0.15958

 Side 1  free  transition at x/c =  0.1359   51
 Side 2  free  transition at x/c =  0.3070   46

  17   rms: 0.2337E+00   max: -.1306E+01   T at   46  2   RLX: 0.383
       a = 12.000      CL =  0.6694
      Cm = -0.1139     CD =  0.16275   =>   CDf =  0.00346    CDp =  0.15929

 Side 1  free  transition at x/c =  0.1361   51
 Side 2  free  transition at x/c =  0.3173   46

  18   rms: 0.1973E+00   max: -.1255E+01   T at   47  2   RLX: 0.398
       a = 12.000      CL =  0.6622
      Cm = -0.1125     CD =  0.16281   =>   CDf =  0.00370    CDp =  0.15911

 Side 1  free  transition at x/c =  0.1363   51
 Side 2  free  transition at x/c =  0.3147   46

  19   rms: 0.3956E+00   max: 0.4247E+01   T at   46  2   RLX: 0.215
       a = 12.000      CL =  0.6261
      Cm = -0.1031     CD =  0.16500   =>   CDf =  0.00368    CDp =  0.16132

 Side 1  free  transition at x/c =  0.1365   50
 Side 2  free  transition at x/c =  0.3006   47

  20   rms: 0.1547E+00   max: -.8554E+00   D at   48  2   RLX: 0.584
       a = 12.000      CL =  0.6360
      Cm = -0.1050     CD =  0.16315   =>   CDf =  0.00304    CDp =  0.16011

 Side 1  free  transition at x/c =  0.1366   51
 Side 2  free  transition at x/c =  0.3036   46

  21   rms: 0.1504E+00   max: -.7827E+00   D at   47  2   RLX: 0.639
       a = 12.000      CL =  0.6495
      Cm = -0.1089     CD =  0.16129   =>   CDf =  0.00347    CDp =  0.15782

 Side 1  free  transition at x/c =  0.1367   51
 Side 2  free  transition at x/c =  0.3113   46

  22   rms: 0.3085E+00   max: -.2218E+01   T at   46  2   RLX: 0.225
       a = 12.000      CL =  0.6655
      Cm = -0.1126     CD =  0.16213   =>   CDf =  0.00388    CDp =  0.15826

 Side 1  free  transition at x/c =  0.1367   51
 Side 2  free  transition at x/c =  0.3220   47

  23   rms: 0.1126E+00   max: -.6766E+00   D at   49  2   RLX: 0.739
       a = 12.000      CL =  0.6659
      Cm = -0.1139     CD =  0.15969   =>   CDf =  0.00449    CDp =  0.15520

 Side 1  free  transition at x/c =  0.1368   51
 Side 2  free  transition at x/c =  0.3296   47

  24   rms: 0.6050E-01   max: -.4121E+00   D at   52  2
       a = 12.000      CL =  0.6658
      Cm = -0.1144     CD =  0.15955   =>   CDf =  0.00473    CDp =  0.15482

 Side 1  free  transition at x/c =  0.1368   51
 Side 2  free  transition at x/c =  0.3326   47

  25   rms: 0.6092E-02   max: 0.6003E-01   D at   48  2
       a = 12.000      CL =  0.6650
      Cm = -0.1142     CD =  0.15975   =>   CDf =  0.00491    CDp =  0.15483
 VISCAL:  Convergence failed
 Calculating wake trajectory ...
 Calculating source influence matrix ...

 Solving BL system ...

 Side 1  free  transition at x/c =  0.1368   51
 Side 2  free  transition at x/c =  0.3315   47

   1   rms: 0.1036E+00   max: 0.8184E+00   T at   51  1   RLX: 0.356
       a = 13.000      CL =  0.6873
      Cm = -0.1140     CD =  0.16185   =>   CDf =  0.00492    CDp =  0.15693

 Side 1  free  transition at x/c =  0.1348   51
 Side 2  free  transition at x/c =  0.3356   47

   2   rms: 0.5234E-01   max: -.2517E+00   T at   47  2
       a = 13.000      CL =  0.7237
      Cm = -0.1152     CD =  0.16759   =>   CDf =  0.00475    CDp =  0.16285

 Side 1  free  transition at x/c =  0.1343   52
 Side 2  free  transition at x/c =  0.3416   47

   3   rms: 0.1925E-01   max: -.1321E+00   T at   52  1
       a = 13.000      CL =  0.7195
      Cm = -0.1162     CD =  0.16787   =>   CDf =  0.00501    CDp =  0.16287

 Side 1  free  transition at x/c =  0.1344   52
 Side 2  free  transition at x/c =  0.3416   47

   4   rms: 0.1224E-01   max: -.8971E-01   T at   52  1
       a = 13.000      CL =  0.7175
      Cm = -0.1166     CD =  0.16858   =>   CDf =  0.00499    CDp =  0.16359

 Side 1  free  transition at x/c =  0.1346   52
 Side 2  free  transition at x/c =  0.3414   47

   5   rms: 0.5448E-02   max: -.4193E-01   T at   52  1
       a = 13.000      CL =  0.7160
      Cm = -0.1169     CD =  0.16959   =>   CDf =  0.00499    CDp =  0.16461

 Side 1  free  transition at x/c =  0.1347   52
 Side 2  free  transition at x/c =  0.3412   47

   6   rms: 0.8878E-02   max: -.1692E+00   D at    2  1
       a = 13.000      CL =  0.7143
      Cm = -0.1172     CD =  0.17020   =>   CDf =  0.00512    CDp =  0.16508

 Side 1  free  transition at x/c =  0.1348   51
 Side 2  free  transition at x/c =  0.3409   48

   7   rms: 0.3132E-01   max: -.1755E+00   T at    2  2
       a = 13.000      CL =  0.6996
      Cm = -0.1199     CD =  0.17464   =>   CDf =  0.00498    CDp =  0.16965

 MRCHDU: Convergence failed at  51  side 1    Res =  0.1864E-04
 Side 1  free  transition at x/c =  0.1341   51
 Side 2  free  transition at x/c =  0.3391   47

   8   rms: 0.5210E-01   max: -.3459E+00   D at   51  1
       a = 13.000      CL =  0.6941
      Cm = -0.1200     CD =  0.16891   =>   CDf =  0.00495    CDp =  0.16395

 Side 1  free  transition at x/c =  0.1345   51
 Side 2  free  transition at x/c =  0.3393   47

   9   rms: 0.2744E-01   max: -.1484E+00   T at   51  1
       a = 13.000      CL =  0.7034
      Cm = -0.1189     CD =  0.16999   =>   CDf =  0.00497    CDp =  0.16502

 Side 1  free  transition at x/c =  0.1347   51
 Side 2  free  transition at x/c =  0.3396   47

  10   rms: 0.1337E-01   max: -.7616E-01   D at   51  1
       a = 13.000      CL =  0.7085
      Cm = -0.1181     CD =  0.17021   =>   CDf =  0.00498    CDp =  0.16524

 Side 1  free  transition at x/c =  0.1348   51
 Side 2  free  transition at x/c =  0.3400   48

  11   rms: 0.6853E-02   max: 0.3460E-01   D at   47  2
       a = 13.000      CL =  0.7116
      Cm = -0.1177     CD =  0.17030   =>   CDf =  0.00499    CDp =  0.16531

 Side 1  free  transition at x/c =  0.1348   51
 Side 2  free  transition at x/c =  0.3406   48

  12   rms: 0.3403E-02   max: -.1295E-01   D at   51  1
       a = 13.000      CL =  0.7133
      Cm = -0.1174     CD =  0.17016   =>   CDf =  0.00498    CDp =  0.16518

 Side 1  free  transition at x/c =  0.1348   51
 Side 2  free  transition at x/c =  0.3408   48

  13   rms: 0.4416E-02   max: -.1146E-01   D at   51  1
       a = 13.000      CL =  0.7155
      Cm = -0.1170     CD =  0.16968   =>   CDf =  0.00498    CDp =  0.16470

 Side 1  free  transition at x/c =  0.1347   51
 Side 2  free  transition at x/c =  0.3411   48

  14   rms: 0.3463E-02   max: -.1878E-01   T at   51  1
       a = 13.000      CL =  0.7139
      Cm = -0.1173     CD =  0.17033   =>   CDf =  0.00498    CDp =  0.16534

 Side 1  free  transition at x/c =  0.1348   51
 Side 2  free  transition at x/c =  0.3408   48

  15   rms: 0.8773E-02   max: 0.2409E-01   T at   51  1
       a = 13.000      CL =  0.7182
      Cm = -0.1165     CD =  0.16893   =>   CDf =  0.00478    CDp =  0.16415

 Side 1  free  transition at x/c =  0.1346   52
 Side 2  free  transition at x/c =  0.3415   47

  16   rms: 0.6272E-02   max: -.4922E-01   T at   52  1
       a = 13.000      CL =  0.7161
      Cm = -0.1169     CD =  0.16956   =>   CDf =  0.00499    CDp =  0.16458

 Side 1  free  transition at x/c =  0.1347   52
 Side 2  free  transition at x/c =  0.3412   47

  17   rms: 0.3575E-02   max: -.2209E-01   T at   52  1
       a = 13.000      CL =  0.7145
      Cm = -0.1172     CD =  0.17014   =>   CDf =  0.00512    CDp =  0.16502

 Side 1  free  transition at x/c =  0.1348   51
 Side 2  free  transition at x/c =  0.3409   48

  18   rms: 0.1040E-01   max: -.5891E-01   D at    2  2
       a = 13.000      CL =  0.7096
      Cm = -0.1181     CD =  0.17159   =>   CDf =  0.00498    CDp =  0.16661

 Side 1  free  transition at x/c =  0.1348   51
 Side 2  free  transition at x/c =  0.3402   48

  19   rms: 0.6378E-02   max: -.4254E-01   D at   51  1
       a = 13.000      CL =  0.7112
      Cm = -0.1177     CD =  0.17031   =>   CDf =  0.00498    CDp =  0.16533

 Side 1  free  transition at x/c =  0.1348   51
 Side 2  free  transition at x/c =  0.3406   48

  20   rms: 0.3769E-02   max: -.1316E-01   D at   51  1
       a = 13.000      CL =  0.7131
      Cm = -0.1174     CD =  0.17019   =>   CDf =  0.00498    CDp =  0.16521

 Side 1  free  transition at x/c =  0.1348   51
 Side 2  free  transition at x/c =  0.3408   48

  21   rms: 0.3780E-02   max: -.1052E-01   D at   51  1
       a = 13.000      CL =  0.7150
      Cm = -0.1171     CD =  0.16982   =>   CDf =  0.00498    CDp =  0.16484

 Side 1  free  transition at x/c =  0.1348   51
 Side 2  free  transition at x/c =  0.3410   48

  22   rms: 0.3968E-02   max: -.1851E-01   T at   51  1
       a = 13.000      CL =  0.7131
      Cm = -0.1174     CD =  0.17055   =>   CDf =  0.00498    CDp =  0.16557

 Side 1  free  transition at x/c =  0.1348   51
 Side 2  free  transition at x/c =  0.3407   48

  23   rms: 0.3164E-02   max: -.1249E-01   D at   51  1
       a = 13.000      CL =  0.7145
      Cm = -0.1172     CD =  0.16995   =>   CDf =  0.00498    CDp =  0.16497

 Side 1  free  transition at x/c =  0.1348   51
 Side 2  free  transition at x/c =  0.3409   48

  24   rms: 0.6945E-02   max: -.2693E-01   T at   51  1
       a = 13.000      CL =  0.7111
      Cm = -0.1178     CD =  0.17114   =>   CDf =  0.00498    CDp =  0.16616

 Side 1  free  transition at x/c =  0.1348   51
 Side 2  free  transition at x/c =  0.3404   48

  25   rms: 0.4260E-02   max: -.2483E-01   D at   51  1
       a = 13.000      CL =  0.7125
      Cm = -0.1175     CD =  0.17024   =>   CDf =  0.00498    CDp =  0.16526
 VISCAL:  Convergence failed
 Calculating wake trajectory ...
 Calculating source influence matrix ...

 Solving BL system ...

 Side 1  free  transition at x/c =  0.1348   51
 Side 2  free  transition at x/c =  0.3407   48

   1   rms: 0.3320E+00   max: -.1191E+01   T at   48  2   RLX: 0.366
       a = 14.000      CL =  0.7771
      Cm = -0.1110     CD =  0.16194   =>   CDf =  0.00479    CDp =  0.15715

 Side 1  free  transition at x/c =  0.1229   50
 Side 2  free  transition at x/c =  0.3579   47

   2   rms: 0.2402E+00   max: -.1265E+01   T at   50  1   RLX: 0.395
       a = 14.000      CL =  0.7673
      Cm = -0.1277     CD =  0.17846   =>   CDf =  0.00493    CDp =  0.17353

 Side 1  free  transition at x/c =  0.1231   50
 Side 2  free  transition at x/c =  0.3517   47

   3   rms: 0.7536E-01   max: -.4422E+00   D at   51  1
       a = 14.000      CL =  0.7347
      Cm = -0.1252     CD =  0.19325   =>   CDf =  0.00490    CDp =  0.18835

 MRCHDU: Convergence failed at  71  side 1    Res =  0.5757E+02
 MRCHDU: Convergence failed at  72  side 1    Res =  0.5957E+02
 MRCHDU: Convergence failed at  73  side 1    Res =  0.1661E+03
 MRCHDU: Convergence failed at  74  side 1    Res =  0.8338E+02
 MRCHDU: Convergence failed at  75  side 1    Res =  0.8027E+02
 MRCHDU: Convergence failed at  76  side 1    Res =  0.5962E+02
 MRCHDU: Convergence failed at  77  side 1    Res =  0.5371E+02
 MRCHDU: Convergence failed at  78  side 1    Res =  0.1631E+03
 MRCHDU: Convergence failed at  79  side 1    Res =  0.7744E+03
 MRCHDU: Convergence failed at  80  side 1    Res =  0.5780E+02
 MRCHDU: Convergence failed at  81  side 1    Res =  0.1648E+03
 MRCHDU: Convergence failed at  82  side 1    Res =  0.5599E+02
 MRCHDU: Convergence failed at  83  side 1    Res =  0.9427E+02
 MRCHDU: Convergence failed at  84  side 1    Res =  0.1748E+03
 MRCHDU: Convergence failed at  85  side 1    Res =  0.5346E+02
 MRCHDU: Convergence failed at  86  side 1    Res =  0.6786E+02
 MRCHDU: Convergence failed at  87  side 1    Res =  0.5795E+02
 MRCHDU: Convergence failed at  86  side 2    Res =  0.3856E+01
 MRCHDU: Convergence failed at  87  side 2    Res =  0.5214E+01
 MRCHDU: Convergence failed at  88  side 2    Res =  0.5391E+01
 MRCHDU: Convergence failed at  89  side 2    Res =  0.1019E+04
 MRCHDU: Convergence failed at  90  side 2    Res =  0.8880E+01
 MRCHDU: Convergence failed at  91  side 2    Res =  0.5816E+01
 MRCHDU: Convergence failed at  92  side 2    Res =  0.1435E+01
 MRCHDU: Convergence failed at  93  side 2    Res =  0.3336E+01
 Side 1  free  transition at x/c =  0.5593   70
 Side 2  free  transition at x/c =  0.3484   47

   4   rms: 0.5566E+01   max: 0.1181E+03   T at   70  1   RLX: 0.008
       a = 14.000      CL =  1.4400
      Cm = -0.3857     CD =  0.02678   =>   CDf =  0.00450    CDp =  0.02228

 Side 1  free  transition at x/c =  0.2905   61
 Side 2  free  transition at x/c =  0.3486   47

   5   rms: 0.5296E+01   max: 0.1001E+03   T at   61  1   RLX: 0.008
       a = 14.000      CL =  1.3004
      Cm = -0.3230     CD =  0.15708   =>   CDf =  0.00474    CDp =  0.15234

 Side 1  free  transition at x/c =  0.2283   59
 Side 2  free  transition at x/c =  0.3488   47

   6   rms: 0.1066E+01   max: 0.1236E+02   T at   59  1   RLX: 0.121
       a = 14.000      CL =  1.2967
      Cm = -0.2968     CD =  0.16508   =>   CDf =  0.00460    CDp =  0.16048

 Side 1  free  transition at x/c =  0.1859   57
 Side 2  free  transition at x/c =  0.3563   46

   7   rms: 0.6799E+00   max: 0.1356E+02   T at   57  1   RLX: 0.111
       a = 14.000      CL =  1.3707
      Cm = -0.3204     CD =  0.17928   =>   CDf =  0.00488    CDp =  0.17440

 Side 1  free  transition at x/c =  0.1598   55
 Side 2  free  transition at x/c =  0.3603   46

   8   rms: 0.4522E+00   max: 0.6267E+01   T at   55  1   RLX: 0.239
       a = 14.000      CL =  1.2994
      Cm = -0.3013     CD =  0.18825   =>   CDf =  0.00498    CDp =  0.18327

 Side 1  free  transition at x/c =  0.1418   53
 Side 2  free  transition at x/c =  0.3633   46

   9   rms: 0.4178E+00   max: 0.2162E+01   T at   53  1   RLX: 0.292
       a = 14.000      CL =  1.1650
      Cm = -0.2777     CD =  0.20047   =>   CDf =  0.00525    CDp =  0.19521

 Side 1  free  transition at x/c =  0.1294   51
 Side 2  free  transition at x/c =  0.3609   47

  10   rms: 0.3288E+00   max: -.1268E+01   D at   54  2   RLX: 0.394
       a = 14.000      CL =  0.9871
      Cm = -0.2339     CD =  0.20382   =>   CDf =  0.00506    CDp =  0.19875

 Side 1  free  transition at x/c =  0.1253   51
 Side 2  free  transition at x/c =  0.3605   47

  11   rms: 0.2580E+00   max: -.1082E+01   D at   50  2   RLX: 0.462
       a = 14.000      CL =  0.8402
      Cm = -0.1933     CD =  0.19985   =>   CDf =  0.00518    CDp =  0.19467

 Side 1  free  transition at x/c =  0.1251   50
 Side 2  free  transition at x/c =  0.3600   48

  12   rms: 0.1831E+00   max: -.8091E+00   D at   51  2   RLX: 0.618
       a = 14.000      CL =  0.7255
      Cm = -0.1558     CD =  0.19723   =>   CDf =  0.00497    CDp =  0.19226

 Side 1  free  transition at x/c =  0.1252   50
 Side 2  free  transition at x/c =  0.3572   48

  13   rms: 0.1132E+00   max: -.4782E+00   D at   51  2
       a = 14.000      CL =  0.6853
      Cm = -0.1329     CD =  0.18085   =>   CDf =  0.00467    CDp =  0.17618

 Side 1  free  transition at x/c =  0.1259   51
 Side 2  free  transition at x/c =  0.3502   47

  14   rms: 0.5163E-01   max: -.3334E+00   D at   96  2
       a = 14.000      CL =  0.7081
      Cm = -0.1309     CD =  0.18618   =>   CDf =  0.00480    CDp =  0.18138

 Side 1  free  transition at x/c =  0.1267   51
 Side 2  free  transition at x/c =  0.3473   47

  15   rms: 0.1842E-01   max: -.1761E+00   D at   96  2
       a = 14.000      CL =  0.7163
      Cm = -0.1304     CD =  0.18715   =>   CDf =  0.00486    CDp =  0.18230

 Side 1  free  transition at x/c =  0.1272   51
 Side 2  free  transition at x/c =  0.3471   47

  16   rms: 0.3820E-02   max: -.4471E-01   D at   96  2
       a = 14.000      CL =  0.7179
      Cm = -0.1303     CD =  0.18842   =>   CDf =  0.00487    CDp =  0.18355

 Side 1  free  transition at x/c =  0.1273   51
 Side 2  free  transition at x/c =  0.3471   47

  17   rms: 0.3406E-03   max: -.4025E-02   D at   96  2
       a = 14.000      CL =  0.7180
      Cm = -0.1302     CD =  0.18867   =>   CDf =  0.00487    CDp =  0.18379

 Side 1  free  transition at x/c =  0.1273   51
 Side 2  free  transition at x/c =  0.3471   47

  18   rms: 0.1590E-04   max: -.1608E-03   D at   96  2
       a = 14.000      CL =  0.7180
      Cm = -0.1302     CD =  0.18868   =>   CDf =  0.00487    CDp =  0.18381

 Point added to stored polar  1
 Point written to save file  000100M0.1.log                                  
 Dump file unspecified or not available
 Calculating wake trajectory ...
 Calculating source influence matrix ...

 Solving BL system ...

 Side 1  free  transition at x/c =  0.1273   51
 Side 2  free  transition at x/c =  0.3471   47

   1   rms: 0.9421E-01   max: 0.7159E+00   T at   51  1   RLX: 0.309
       a = 15.000      CL =  0.7339
      Cm = -0.1308     CD =  0.19158   =>   CDf =  0.00488    CDp =  0.18670

 Side 1  free  transition at x/c =  0.1261   51
 Side 2  free  transition at x/c =  0.3504   47

   2   rms: 0.7396E-01   max: 0.3869E+00   T at   51  1
       a = 15.000      CL =  0.7852
      Cm = -0.1304     CD =  0.19542   =>   CDf =  0.00465    CDp =  0.19077

 Side 1  free  transition at x/c =  0.1249   52
 Side 2  free  transition at x/c =  0.3585   46

   3   rms: 0.5722E-01   max: -.2789E+00   D at   52  1
       a = 15.000      CL =  0.7879
      Cm = -0.1300     CD =  0.18964   =>   CDf =  0.00484    CDp =  0.18480

 MRCHDU: Convergence failed at  52  side 1    Res =  0.1985E-04
 Side 1  free  transition at x/c =  0.1251   52
 Side 2  free  transition at x/c =  0.3607   46

   4   rms: 0.1564E-01   max: -.9471E-01   T at   52  1
       a = 15.000      CL =  0.7916
      Cm = -0.1295     CD =  0.19453   =>   CDf =  0.00488    CDp =  0.18965

 Side 1  free  transition at x/c =  0.1252   52
 Side 2  free  transition at x/c =  0.3603   46

   5   rms: 0.2721E-02   max: -.1850E-01   D at   94  2
       a = 15.000      CL =  0.7921
      Cm = -0.1294     CD =  0.19526   =>   CDf =  0.00487    CDp =  0.19039

 Side 1  free  transition at x/c =  0.1252   52
 Side 2  free  transition at x/c =  0.3602   46

   6   rms: 0.3127E-03   max: -.2914E-02   D at   94  2
       a = 15.000      CL =  0.7922
      Cm = -0.1294     CD =  0.19553   =>   CDf =  0.00487    CDp =  0.19066

 Side 1  free  transition at x/c =  0.1252   52
 Side 2  free  transition at x/c =  0.3602   46

   7   rms: 0.1934E-04   max: 0.1420E-03   D at   47  2
       a = 15.000      CL =  0.7922
      Cm = -0.1294     CD =  0.19555   =>   CDf =  0.00487    CDp =  0.19068

 Point added to stored polar  1
 Point written toGot result {'DD': 0.02224, 'Dmin': 0.02387, 'LL': -0.5048}
Completed successfully in 3.07 seconds. [{'DD': 0.02224, 'Dmin': 0.02387, 'LL': -0.5048}]
 save file  000100M0.1.log                                  
 Dump file unspecified or not available

.OPERva   c>  
 XFOIL   c>  
