Job launching after 0.30 seconds in submission.
Running python job.
Changed into dir /home/simonx/Documents/Udacity/Projects/capstone/PESM_NSGA2_CST_XFoil
Importing evaluationFunctionXFoil.py
Running evaluationFunctionXFoil.main()
0
1
2
0.04
resp: 
 ===================================================
  XFOIL Version 6.97
  Copyright (C) 2000   Mark Drela, Harold Youngren

  This software comes with ABSOLUTELY NO WARRANTY,
    subject to the GNU General Public License.

  Caveat computor
 ===================================================

 File  xfoil.def  not found

   QUIT    Exit program

  .OPER    Direct operating point(s)
  .MDES    Complex mapping design routine
  .QDES    Surface speed design routine
  .GDES    Geometry design routine

   SAVE f  Write airfoil to labeled coordinate file
   PSAV f  Write airfoil to plain coordinate file
   ISAV f  Write airfoil to ISES coordinate file
   MSAV f  Write airfoil to MSES coordinate file
   REVE    Reverse written-airfoil node ordering
   DELI i  Change written-airfoil file delimiters

   LOAD f  Read buffer airfoil from coordinate file
   NACA i  Set NACA 4,5-digit airfoil and buffer airfoil
   INTE    Set buffer airfoil by interpolating two airfoils
   NORM    Buffer airfoil normalization toggle
   HALF    Halve the number of points in buffer airfoil
   XYCM rr Change CM reference location, currently  0.25000 0.00000

   BEND    Display structural properties of current airfoil

   PCOP    Set current-airfoil panel nodes directly from buffer airfoil points
   PANE    Set current-airfoil panel nodes ( 160 ) based on curvature
  .PPAR    Show/change paneling

  .PLOP    Plotting options

   WDEF f  Write  current-settings file
   RDEF f  Reread current-settings file
   NAME s  Specify new airfoil name
   NINC    Increment name version number

   Z       Zoom    | (available in all menus)
   U       Unzoom  | 

 XFOIL   c>   ...............................................

  G raphics-enable flag:        T
  S ize of plot object          10.00"
  A spect ratio of plot object   0.5500
  P age dimensions              11.00 x  8.50"
  M argins from page edges       0.00",  0.00"
  F ont size (relative)          0.0150
  W indow/screen size fraction   0.8000
  B lowup input method:        Cursor    
  O rientation of plot:        Landscape 
  C olor PostScript output?     F

      Option, Value   (or <Return>)    c>   ...............................................

  G raphics-enable flag:        F
  S ize of plot object          10.00"
  A spect ratio of plot object   0.5500
  P age dimensions              11.00 x  8.50"
  M argins from page edges       0.00",  0.00"
  F ont size (relative)          0.0150
  W indow/screen size fraction   0.8000
  B lowup input method:        Cursor    
  O rientation of plot:        Landscape 
  C olor PostScript output?     F

      Option, Value   (or <Return>)    c>  
 XFOIL   c>  
 Labeled airfoil file.  Name:  000111                                          

 Number of input coordinate points: 200
 Clockwise ordering
 Max thickness =     0.139472  at x =   0.219
 Max camber    =     0.071047  at x =   0.484

  LE  x,y  =  -0.00000   0.00025  |   Chord =   0.99988
  TE  x,y  =   0.99988   0.00006  |

 Current airfoil nodes set from buffer airfoil nodes ( 200 )

 XFOIL   c>  
 You are working with the buffer airfoil

.GDES   c>  
  i       x        y      angle
   2   0.9990   0.0005    0.114
   3   0.9978   0.0011    0.183
   4   0.9961   0.0019    0.198
   5   0.9938   0.0030    0.266
   6   0.9911   0.0042    0.327
   7   0.9880   0.0057    0.374
   8   0.9843   0.0074    0.410
   9   0.9801   0.0093    0.470
  10   0.9755   0.0113    0.489
  11   0.9704   0.0135    0.531
  12   0.9649   0.0158    0.566
  13   0.9589   0.0182    0.591
  14   0.9524   0.0207    0.608
  15   0.9455   0.0234    0.632
  16   0.9382   0.0261    0.647
  17   0.9304   0.0289    0.643
  18   0.9222   0.0317    0.658
  19   0.9135   0.0345    0.648
  20   0.9045   0.0374    0.635
  21   0.8951   0.0403    0.630
  22   0.8853   0.0432    0.616
  23   0.8751   0.0461    0.583
  24   0.8645   0.0489    0.570
  25   0.8536   0.0518    0.533
  26   0.8423   0.0546    0.502
  27   0.8307   0.0574    0.476
  28   0.8187   0.0602    0.436
  29   0.8065   0.0630    0.405
  30   0.7939   0.0657    0.367
  31   0.7810   0.0684    0.333
  32   0.7679   0.0711    0.299
  33   0.7545   0.0738    0.268
  34   0.7409   0.0764    0.240
  35   0.7270   0.0790    0.209
  36   0.7129   0.0817    0.195
  37   0.6986   0.0843    0.167
  38   0.6841   0.0869    0.161
  39   0.6694   0.0895    0.145
  40   0.6545   0.0921    0.142
  41   0.6395   0.0947    0.147
  42   0.6243   0.0972    0.148
  43   0.6091   0.0998    0.159
  44   0.5937   0.1023    0.181
  45   0.5782   0.1048    0.198
  46   0.5627   0.1072    0.233
  47   0.5471   0.1096    0.258
  48   0.5314   0.1119    0.299
  49   0.5157   0.1141    0.340
  50   0.5000   0.1163    0.391
  51   0.4843   0.1183    0.435
  52   0.4686   0.1202    0.495
  53   0.4529   0.1220    0.547
  54   0.4373   0.1236    0.608
  55   0.4218   0.1251    0.669
  56   0.4063   0.1263    0.728
  57   0.3909   0.1274    0.795
  58   0.3757   0.1282    0.854
  59   0.3605   0.1288    0.917
  60   0.3455   0.1291    0.969
  61   0.3306   0.1292    1.033
  62   0.3159   0.1291    1.086
  63   0.3014   0.1286    1.131
  64   0.2871   0.1279    1.176
  65   0.2730   0.1269    1.221
  66   0.2591   0.1256    1.251
  67   0.2455   0.1241    1.288
  68   0.2321   0.1222    1.298
  69   0.2190   0.1201    1.327
  70   0.2061   0.1177    1.337
  71   0.1935   0.1151    1.338
  72   0.1813   0.1123    1.349
  73   0.1693   0.1092    1.338
  74   0.1577   0.1059    1.345
  75   0.1464   0.1024    1.332
  76   0.1355   0.0988    1.320
  77   0.1249   0.0950    1.319
  78   0.1147   0.0910    1.322
  79   0.1049   0.0870    1.313
  80   0.0955   0.0828    1.316
  81   0.0865   0.0786    1.336
  82   0.0778   0.0743    1.367
  83   0.0696   0.0700    1.398
  84   0.0618   0.0656    1.454
  85   0.0545   0.0613    1.534
  86   0.0476   0.0569    1.638
  87   0.0411   0.0526    1.769
  88   0.0351   0.0483    1.940
  89   0.0296   0.0441    2.161
  90   0.0245   0.0398    2.417
  91   0.0199   0.0357    2.772
  92   0.0157   0.0316    3.163
  93   0.0120   0.0275    3.633
  94   0.0089   0.0235    4.217
  95   0.0062   0.0195    4.836
  96   0.0039   0.0155    5.509
  97   0.0022   0.0116    6.194
  98   0.0010   0.0077    6.764
  99   0.0002   0.0039    7.168
 100   0.0000   0.0000    8.333
 101   0.0002  -0.0030    9.190
 102   0.0010  -0.0060    8.785
 103   0.0022  -0.0090    8.233
 104   0.0039  -0.0119    7.522
 105   0.0062  -0.0147    6.823
 106   0.0089  -0.0173    6.136
 107   0.0120  -0.0199    5.472
 108   0.0157  -0.0223    4.920
 109   0.0199  -0.0245    4.388
 110   0.0245  -0.0265    3.928
 111   0.0296  -0.0284    3.513
 112   0.0351  -0.0300    3.163
 113   0.0411  -0.0314    2.831
 114   0.0476  -0.0326    2.557
 115   0.0545  -0.0336    2.296
 116   0.0618  -0.0343    2.057
 117   0.0696  -0.0348    1.847
 118   0.0778  -0.0350    1.655
 119   0.0865  -0.0350    1.485
 120   0.0955  -0.0348    1.315
 121   0.1049  -0.0343    1.174
 122   0.1147  -0.0336    1.042
 123   0.1249  -0.0328    0.910
 124   0.1355  -0.0317    0.797
 125   0.1464  -0.0304    0.696
 126   0.1577  -0.0289    0.591
 127   0.1693  -0.0273    0.508
 128   0.1813  -0.0255    0.425
 129   0.1935  -0.0236    0.344
 130   0.2061  -0.0215    0.276
 131   0.2190  -0.0194    0.213
 132   0.2321  -0.0171    0.157
 133   0.2455  -0.0148    0.102
 134   0.2591  -0.0123    0.048
 135   0.2730  -0.0099    0.013
 136   0.2871  -0.0074   -0.029
 137   0.3014  -0.0048   -0.072
 138   0.3159  -0.0023   -0.094
 139   0.3306   0.0003   -0.132
 140   0.3455   0.0028   -0.152
 141   0.3605   0.0054   -0.182
 142   0.3757   0.0079   -0.198
 143   0.3909   0.0104   -0.216
 144   0.4063   0.0128   -0.238
 145   0.4218   0.0152   -0.255
 146   0.4373   0.0175   -0.267
 147   0.4529   0.0198   -0.282
 148   0.4686   0.0220   -0.295
 149   0.4843   0.0241   -0.312
 150   0.5000   0.0261   -0.327
 151   0.5157   0.0281   -0.335
 152   0.5314   0.0299   -0.355
 153   0.5471   0.0316   -0.370
 154   0.5627   0.0333   -0.384
 155   0.5782   0.0348   -0.402
 156   0.5937   0.0362   -0.420
 157   0.6091   0.0375   -0.444
 158   0.6243   0.0386   -0.462
 159   0.6395   0.0397   -0.481
 160   0.6545   0.0405   -0.508
 161   0.6694   0.0413   -0.528
 162   0.6841   0.0419   -0.554
 163   0.6986   0.0423   -0.579
 164   0.7129   0.0426   -0.603
 165   0.7270   0.0428   -0.634
 166   0.7409   0.0428   -0.656
 167   0.7545   0.0426   -0.680
 168   0.7679   0.0423   -0.712
 169   0.7810   0.0418   -0.726
 170   0.7939   0.0412   -0.751
 171   0.8065   0.0404   -0.776
 172   0.8187   0.0395   -0.790
 173   0.8307   0.0384   -0.807
 174   0.8423   0.0372   -0.824
 175   0.8536   0.0359   -0.827
 176   0.8645   0.0344   -0.838
 177   0.8751   0.0329   -0.844
 178   0.8853   0.0312   -0.839
 179   0.8951   0.0295   -0.844
 180   0.9045   0.0276   -0.823
 181   0.9135   0.0257   -0.812
 182   0.9222   0.0238   -0.809
 183   0.9304   0.0219   -0.772
 184   0.9382   0.0199   -0.760
 185   0.9455   0.0180   -0.732
 186   0.9524   0.0160   -0.692
 187   0.9589   0.0141   -0.661
 188   0.9649   0.0123   -0.615
 189   0.9704   0.0105   -0.595
 190   0.9755   0.0088   -0.528
 191   0.9801   0.0073   -0.492
 192   0.9843   0.0058   -0.446
 193   0.9880   0.0045   -0.377
 194   0.9911   0.0034   -0.363
 195   0.9938   0.0024   -0.256
 196   0.9961   0.0015   -0.247
 197   0.9978   0.0009   -0.164
 198   0.9990   0.0004   -0.115
 199   0.9998   0.0001   -0.041

 Maximum panel corner angle =  9.190   at  i,x,y  = 101   0.0002  -0.0030

 Enter corner angle criterion for refinement (deg):   4.595
 Enter type of spline parameter (1=uniform, 2=arclength):   1
 Enter refinement x limits:  -0.10000   1.10000
 Number of points added:           28
 Max thickness =     0.139467  at x =   0.219
 Max camber    =     0.071174  at x =   0.484

 Maximum panel corner angle =  3.928   at  i,x,y  = 138   0.0245  -0.0265

.GDES   c>  
 Buffer airfoil is not identical to current airfoil

 XFOIL   c>  
 Blunt trailing edge.  Gap =  0.00028

 Paneling parameters used...
   Number of panel nodes       160
   Panel bunching parameter    1.000
   TE/LE panel density ratio   0.150
   Refined-area/LE panel density ratio    0.200
   Top    side refined area x/c limits  1.000 1.000
   Bottom side refined area x/c limits  1.000 1.000

 XFOIL   c>  
Enter output filename   s>  
 XFOIL   c>  
.OPERi   c>   Current iteration limit:          20

Enter new iteration limit   i>  
Enter new iteration limit   i>  
Enter new iteration limit   i>  
.OPERi   c>  
 M  =    0.0000
 Re =  0.3000E+06

.OPERv   c>  
 Sonic Cp =   -420.65      Sonic Q/Qinf =    22.825


.OPERv   c>  
 Polar  1 newly created for accumulation
 Airfoil archived with polar: 000111                                          

Enter  polar save filename  OR  <return> for no file   s>  
 New polar save file available

Enter  polar dump filename  OR  <return> for no file   s>  
 Polar dump file will NOT be written

 Polar accumulation enabled

.OPERva   c>   Calculating unit vorticity distributions ...
 Calculating wake trajectory ...
 Calculating source influence matrix ...

 Solving BL system ...

 Initializing BL ...
    side            1  ...
 MRCHUE: Inverse mode at  49     Hk =   4.045
 MRCHUE: Inverse mode at  50     Hk =   4.867
 MRCHUE: Inverse mode at  51     Hk =   5.671
 MRCHUE: Inverse mode at  52     Hk =   6.464
 MRCHUE: Inverse mode at  53     Hk =   7.251
 MRCHUE: Inverse mode at  54     Hk =   8.036
 MRCHUE: Inverse mode at  55     Hk =   8.819
 MRCHUE: Inverse mode at  56     Hk =   9.272
 MRCHUE: Inverse mode at  57     Hk =   5.541
 MRCHUE: Inverse mode at  58     Hk =   3.780
 MRCHUE: Inverse mode at  59     Hk =   2.588
    side            2  ...
 MRCHUE: Inverse mode at  30     Hk =   4.249
 MRCHUE: Inverse mode at  31     Hk =   5.120
 MRCHUE: Inverse mode at  32     Hk =   5.963
 MRCHUE: Inverse mode at  33     Hk =   6.780
 MRCHUE: Inverse mode at  34     Hk =   7.573
 MRCHUE: Inverse mode at  35     Hk =   8.341
 MRCHUE: Inverse mode at  36     Hk =   9.086
 MRCHUE: Inverse mode at  37     Hk =   7.609
 MRCHUE: Inverse mode at  38     Hk =   5.023
 MRCHUE: Inverse mode at  39     Hk =   3.473

 Side 1  free  transition at x/c =  0.4666   56
 Side 2  free  transition at x/c =  0.3448   37

   1   rms: 0.2034E+00   max: -.1306E+01   T at   56  1   RLX: 0.383
       a =  2.000      CL =  1.3532
      Cm = -0.2620     CD =  0.01979   =>   CDf =  0.00861    CDp =  0.01118

 MRCHDU: Convergence failed at  58  side 1    Res =  0.1118E+02
 MRCHDU: Convergence failed at  59  side 1    Res =  0.5567E+01
 MRCHDU: Convergence failed at  60  side 1    Res =  0.6479E+01
 MRCHDU: Convergence failed at  61  side 1    Res =  0.4321E+01
 MRCHDU: Convergence failed at  62  side 1    Res =  0.2909E+01
 MRCHDU: Convergence failed at  63  side 1    Res =  0.2939E+01
 MRCHDU: Convergence failed at  64  side 1    Res =  0.3037E+01
 MRCHDU: Convergence failed at  65  side 1    Res =  0.3165E+01
 MRCHDU: Convergence failed at  66  side 1    Res =  0.3427E+01
 MRCHDU: Convergence failed at  67  side 1    Res =  0.3721E+01
 MRCHDU: Convergence failed at  68  side 1    Res =  0.4061E+01
 MRCHDU: Convergence failed at  69  side 1    Res =  0.4445E+01
 MRCHDU: Convergence failed at  70  side 1    Res =  0.4869E+01
 MRCHDU: Convergence failed at  71  side 1    Res =  0.5354E+01
 MRCHDU: Convergence failed at  72  side 1    Res =  0.5901E+01
 MRCHDU: Convergence failed at  73  side 1    Res =  0.6573E+01
 MRCHDU: Convergence failed at  74  side 1    Res =  0.7429E+01
 MRCHDU: Convergence failed at  75  side 1    Res =  0.8514E+01
 MRCHDU: Convergence failed at  76  side 1    Res =  0.1019E+02
 MRCHDU: Convergence failed at  77  side 1    Res =  0.1254E+02
 MRCHDU: Convergence failed at  78  side 1    Res =  0.1662E+02
 MRCHDU: Convergence failed at  79  side 1    Res =  0.2501E+02
 MRCHDU: Convergence failed at  80  side 1    Res =  0.4805E+02
 MRCHDU: Convergence failed at  81  side 1    Res =  0.2135E+04
 MRCHDU: Convergence failed at  82  side 1    Res =  0.9622E+01
 MRCHDU: Convergence failed at  83  side 1    Res =  0.1229E+02
 MRCHDU: Convergence failed at  84  side 1    Res =  0.2100E+02
 MRCHDU: Convergence failed at  85  side 1    Res =  0.2498E+02
 MRCHDU: Convergence failed at  86  side 1    Res =  0.4516E+02
 MRCHDU: Convergence failed at  87  side 1    Res =  0.1872E+02
 MRCHDU: Convergence failed at  77  side 2    Res =  0.5129E+01
 MRCHDU: Convergence failed at  78  side 2    Res =  0.1551E+01
 Side 1  free  transition at x/c =  0.4856   57
 Side 2  free  transition at x/c =  0.3535   37

   2   rms: 0.6555E+00   max: 0.2909E+01   D at   86  1   RLX: 0.516
       a =  2.000      CL =  1.4221
      Cm = -0.3433     CD =  0.00895   =>   CDf =  0.00542    CDp =  0.00353

 MRCHDU: Convergence failed at  70  side 1    Res =  0.7051E-01
 MRCHDU: Convergence failed at  81  side 2    Res =  0.1729E+01
 MRCHDU: Convergence failed at  82  side 2    Res =  0.4614E+01
 MRCHDU: Convergence failed at  83  side 2    Res =  0.1526E+01
 MRCHDU: Convergence failed at  84  side 2    Res =  0.2351E+01
 Side 1  free  transition at x/c =  0.4688   56
 Side 2  free  transition at x/c =  0.3520   38

   3   rms: 0.2500E+00   max: -.1209E+01   T at   56  1   RLX: 0.414
       a =  2.000      CL =  1.2206
      Cm = -0.2501     CD =  0.02900   =>   CDf =  0.00617    CDp =  0.02283

 MRCHDU: Convergence failed at  70  side 1    Res =  0.7832E-01
 Side 1  free  transition at x/c =  0.4775   56
 Side 2  free  transition at x/c =  0.3502   38

   4   rms: 0.3509E+00   max: -.2031E+01   D at   70  1   RLX: 0.246
       a =  2.000      CL =  1.1726
      Cm = -0.2332     CD =  0.02765   =>   CDf =  0.00632    CDp =  0.02133

 Side 1  free  transition at x/c =  0.4924   56
 Side 2  free  transition at x/c =  0.3458   39

   5   rms: 0.8600E+00   max: -.5257E+01   D at   63  1   RLX: 0.095
       a =  2.000      CL =  1.1363
      Cm = -0.2296     CD =  0.02462   =>   CDf =  0.00640    CDp =  0.01822

 Side 1  free  transition at x/c =  0.5009   56
 Side 2  free  transition at x/c =  0.3372   39

   6   rms: 0.2907E+00   max: -.1717E+01   D at   66  1   RLX: 0.291
       a =  2.000      CL =  1.1494
      Cm = -0.2266     CD =  0.02276   =>   CDf =  0.00695    CDp =  0.01580

 Side 1  free  transition at x/c =  0.5037   56
 Side 2  free  transition at x/c =  0.3412   39

   7   rms: 0.4912E+00   max: -.2152E+01   D at   74  1   RLX: 0.232
       a =  2.000      CL =  1.1993
      Cm = -0.2280     CD =  0.01831   =>   CDf =  0.00684    CDp =  0.01147

 Side 1  free  transition at x/c =  0.5046   57
 Side 2  free  transition at x/c =  0.3514   38

   8   rms: 0.1055E+01   max: -.5694E+01   D at   78  1   RLX: 0.088
       a =  2.000      CL =  1.2494
      Cm = -0.2321     CD =  0.01659   =>   CDf =  0.00736    CDp =  0.00923

 Side 1  free  transition at x/c =  0.5044   57
 Side 2  free  transition at x/c =  0.3668   39

   9   rms: 0.4646E+00   max: -.2272E+01   D at   82  1   RLX: 0.220
       a =  2.000      CL =  1.3012
      Cm = -0.2415     CD =  0.01508   =>   CDf =  0.00753    CDp =  0.00754

 MRCHDU: Convergence failed at  84  side 1    Res =  0.9756E+00
 MRCHDU: Convergence failed at  85  side 1    Res =  0.2088E+01
 MRCHDU: Convergence failed at  86  side 1    Res =  0.2982E+01
 Side 1  free  transition at x/c =  0.5026   57
 Side 2  free  transition at x/c =  0.3749   40

  10   rms: 0.2012E+00   max: -.1265E+01   D at   81  1   RLX: 0.395
       a =  2.000      CL =  1.3096
      Cm = -0.2465     CD =  0.01328   =>   CDf =  0.00770    CDp =  0.00557

 Side 1  free  transition at x/c =  0.4998   57
 Side 2  free  transition at x/c =  0.3775   40

  11   rms: 0.1084E+00   max: -.7074E+00   D at   80  1   RLX: 0.707
       a =  2.000      CL =  1.2849
      Cm = -0.2451     CD =  0.01421   =>   CDf =  0.00781    CDp =  0.00640

 Side 1  free  transition at x/c =  0.4957   57
 Side 2  free  transition at x/c =  0.3745   40

  12   rms: 0.4819E-01   max: -.3468E+00   D at   83  1
       a =  2.000      CL =  1.2569
      Cm = -0.2420     CD =  0.01510   =>   CDf =  0.00795    CDp =  0.00715

 Side 1  free  transition at x/c =  0.4939   57
 Side 2  free  transition at x/c =  0.3695   39

  13   rms: 0.6663E-02   max: -.7359E-01   D at   83  1
       a =  2.000      CL =  1.2549
      Cm = -0.2418     CD =  0.01511   =>   CDf =  0.00800    CDp =  0.00711

 Side 1  free  transition at x/c =  0.4939   57
 Side 2  free  transition at x/c =  0.3677   39

  14   rms: 0.2404E-03   max: -.3319E-02   D at   83  1
       a =  2.000      CL =  1.2548
      Cm = -0.2418     CD =  0.01511   =>   CDf =  0.00799    CDp =  0.00712

 Side 1  free  transition at x/c =  0.4939   57
 Side 2  free  transition at x/c =  0.3677   39

  15   rms: 0.9112E-06   max: -.6250E-05   D at   83  1
       a =  2.000      CL =  1.2548
      Cm = -0.2418     CD =  0.01511   =>   CDf =  0.00799    CDp =  0.00712

 Point added to stored polar  1
 Point written to save file  000111M0.04.log                                 
 Dump file unspecified or not available
 Calculating wake trajectory ...
 Calculating source influence matrix ...

 Solving BL system ...

 Side 1  free  transition at x/c =  0.4939   57
 Side 2  free  transition at x/c =  0.3677   39

   1   rms: 0.1676E+00   max: -.1078E+01   T at   39  2   RLX: 0.464
       a =  3.000      CL =  1.3081
      Cm = -0.2419     CD =  0.01540   =>   CDf =  0.00785    CDp =  0.00755

 MRCHDU: Convergence failed at  40  side 2    Res =  0.5665E+01
 MRCHDU: Convergence failed at  41  side 2    Res =  0.2238E+01
 MRCHDU: Convergence failed at  42  side 2    Res =  0.3742E+01
 MRCHDU: Convergence failed at  43  side 2    Res =  0.9904E+01
 MRCHDU: Convergence failed at  44  side 2    Res =  0.8231E+02
 MRCHDU: Convergence failed at  45  side 2    Res =  0.5025E+02
 MRCHDU: Convergence failed at  46  side 2    Res =  0.3417E+02
 MRCHDU: Convergence failed at  47  side 2    Res =  0.3552E+02
 MRCHDU: Convergence failed at  48  side 2    Res =  0.4700E+02
 MRCHDU: Convergence failed at  49  side 2    Res =  0.7987E+02
 MRCHDU: Convergence failed at  50  side 2    Res =  0.1695E+03
 MRCHDU: Convergence failed at  51  side 2    Res =  0.2350E+03
 MRCHDU: Convergence failed at  52  side 2    Res =  0.7672E+02
 MRCHDU: Convergence failed at  53  side 2    Res =  0.4656E+02
 MRCHDU: Convergence failed at  54  side 2    Res =  0.3250E+02
 MRCHDU: Convergence failed at  55  side 2    Res =  0.2638E+02
 MRCHDU: Convergence failed at  56  side 2    Res =  0.2271E+02
 MRCHDU: Convergence failed at  57  side 2    Res =  0.1980E+02
 MRCHDU: Convergence failed at  58  side 2    Res =  0.1814E+02
 MRCHDU: Convergence failed at  59  side 2    Res =  0.1673E+02
 MRCHDU: Convergence failed at  60  side 2    Res =  0.1602E+02
 MRCHDU: Convergence failed at  61  side 2    Res =  0.1552E+02
 MRCHDU: Convergence failed at  62  side 2    Res =  0.1534E+02
 MRCHDU: Convergence failed at  63  side 2    Res =  0.1542E+02
 MRCHDU: Convergence failed at  64  side 2    Res =  0.1572E+02
 MRCHDU: Convergence failed at  65  side 2    Res =  0.1640E+02
 MRCHDU: Convergence failed at  66  side 2    Res =  0.1751E+02
 MRCHDU: Convergence failed at  67  side 2    Res =  0.1888E+02
 MRCHDU: Convergence failed at  68  side 2    Res =  0.2055E+02
 MRCHDU: Convergence failed at  69  side 2    Res =  0.2139E+02
 MRCHDU: Convergence failed at  70  side 2    Res =  0.2061E+02
 MRCHDU: Convergence failed at  71  side 2    Res =  0.1467E+02
 MRCHDU: Convergence failed at  72  side 2    Res =  0.7647E+01
 MRCHDU: Convergence failed at  73  side 2    Res =  0.2984E+01
 Side 1  free  transition at x/c =  0.4857   57
 Side 2  free  transition at x/c =  0.4020   40

   2   rms: 0.2717E+00   max: -.9940E+00   D at   72  2   RLX: 0.503
       a =  3.000      CL =  1.3295
      Cm = -0.2295     CD =  0.01521   =>   CDf =  0.00654    CDp =  0.00867

 Side 1  free  transition at x/c =  0.4800   57
 Side 2  free  transition at x/c =  0.4412   42

   3   rms: 0.6841E-01   max: -.4191E+00   D at   73  2
       a =  3.000      CL =  1.3750
      Cm = -0.2432     CD =  0.01573   =>   CDf =  0.00813    CDp =  0.00760

 Side 1  free  transition at x/c =  0.4764   57
 Side 2  free  transition at x/c =  0.4527   43

   4   rms: 0.7617E-02   max: -.8994E-01   D at   44  2
       a =  3.000      CL =  1.3709
      Cm = -0.2422     CD =  0.01578   =>   CDf =  0.00781    CDp =  0.00797

 Side 1  free  transition at x/c =  0.4766   57
 Side 2  free  transition at x/c =  0.4490   42

   5   rms: 0.1614E-02   max: 0.2280E-01   D at   43  2
       a =  3.000      CL =  1.3710
      Cm = -0.2423     CD =  0.01577   =>   CDf =  0.00780    CDp =  0.00796

 Side 1  free  transition at x/c =  0.4766   57
 Side 2  free  transition at x/c =  0.4480   42

   6   rms: 0.4715E-04   max: -.4720E-03   C at   42  2
       a =  3.000      CL =  1.3710
      Cm = -0.2423     CD =  0.01577   =>   CDf =  0.00780    CDp =  0.00797

 Point added to stored polar  1
 Point written to save file  000111M0.04.log                                 
 Dump file unspecified or not available
 Calculating wake trajectory ...
 Calculating source influence matrix ...

 Solving BL system ...

 Side 1  free  transition at x/c =  0.4766   57
 Side 2  free  transition at x/c =  0.4480   42

   1   rms: 0.1678E+00   max: -.1022E+01   T at   42  2   RLX: 0.489
       a =  4.000      CL =  1.4266
      Cm = -0.2422     CD =  0.01613   =>   CDf =  0.00764    CDp =  0.00849

 Side 1  free  transition at x/c =  0.4680   58
 Side 2  free  transition at x/c =  0.5051   44

   2   rms: 0.9231E-01   max: -.6204E+00   T at   44  2   RLX: 0.806
       a =  4.000      CL =  1.4756
      Cm = -0.2428     CD =  0.01703   =>   CDf =  0.00766    CDp =  0.00937

 Side 1  free  transition at x/c =  0.4628   58
 Side 2  free  transition at x/c =  0.5614   46

   3   rms: 0.2359E-01   max: -.2396E+00   C at   46  2
       a =  4.000      CL =  1.4847
      Cm = -0.2423     CD =  0.01652   =>   CDf =  0.00762    CDp =  0.00890

 Side 1  free  transition at x/c =  0.4601   58
 Side 2  free  transition at x/c =  0.5615   46

   4   rms: 0.3445E-02   max: 0.5098E-01   C at   46  2
       a =  4.000      CL =  1.4851
      Cm = -0.2423     CD =  0.01653   =>   CDf =  0.00749    CDp =  0.00904

 Side 1  free  transition at x/c =  0.4602   58
 Side 2  free  transition at x/c =  0.5594   46

   5   rms: 0.5805E-04   max: -.7123E-03   D at   49  2
       a =  4.000      CL =  1.4851
      Cm = -0.2423     CD =  0.01653   =>   CDf =  0.00749    CDp =  0.00904

 Point added to stored polar  1
 Point written to save file  000111M0.04.log                                 
 Dump file unspecified or not available
 Calculating wake trajectory ...
 Calculating source influence matrix ...

 Solving BL system ...

 Side 1  free  transition at x/c =  0.4602   58
 Side 2  free  transition at x/c =  0.5594   46

   1   rms: 0.1782E+00   max: -.9815E+00   C at   46  2   RLX: 0.509
       a =  5.000      CL =  1.5420
      Cm = -0.2421     CD =  0.01692   =>   CDf =  0.00750    CDp =  0.00942

 Side 1  free  transition at x/c =  0.4515   58
 Side 2  free  transition at x/c =  0.6196   49

   2   rms: 0.9419E-01   max: -.7372E+00   T at   49  2   RLX: 0.678
       a =  5.000      CL =  1.5804
      Cm = -0.2423     CD =  0.01756   =>   CDf =  0.00730    CDp =  0.01027

 MRCHDU: Convergence failed at  52  side 2    Res =  0.4926E+01
 MRCHDU: Convergence failed at  53  side 2    Res =  0.6907E+01
 MRCHDU: Convergence failed at  54  side 2    Res =  0.3040E+02
 MRCHDU: Convergence failed at  55  side 2    Res =  0.6995E+02
 MRCHDU: Convergence failed at  56  side 2    Res =  0.3933E+02
 MRCHDU: Convergence failed at  57  side 2    Res =  0.5532E+02
 MRCHDU: Convergence failed at  58  side 2    Res =  0.3827E+03
 MRCHDU: Convergence failed at  59  side 2    Res =  0.3276E+02
 MRCHDU: Convergence failed at  60  side 2    Res =  0.1525E+02
 MRCHDU: Convergence failed at  61  side 2    Res =  0.9199E+01
 MRCHDU: Convergence failed at  62  side 2    Res =  0.6119E+01
 MRCHDU: Convergence failed at  63  side 2    Res =  0.3365E+01
 Side 1  free  transition at x/c =  0.4479   58
 Side 2  free  transition at x/c =  0.6877   52

   3   rms: 0.1099E+00   max: -.8407E+00   D at   61  2   RLX: 0.595
       a =  5.000      CL =  1.5868
      Cm = -0.2399     CD =  0.01718   =>   CDf =  0.00687    CDp =  0.01031

 Side 1  free  transition at x/c =  0.4459   58
 Side 2  free  transition at x/c =  0.7122   53

   4   rms: 0.1604E-01   max: 0.1437E+00   D at   64  2
       a =  5.000      CL =  1.5962
      Cm = -0.2418     CD =  0.01740   =>   CDf =  0.00720    CDp =  0.01020

 Side 1  free  transition at x/c =  0.4446   58
 Side 2  free  transition at x/c =  0.7031   53

   5   rms: 0.1194E-02   max: -.1557E-01   C at   53  2
       a =  5.000      CL =  1.5962
      Cm = -0.2418     CD =  0.01741   =>   CDf =  0.00715    CDp =  0.01026

 Side 1  free  transition at x/c =  0.4446   58
 Side 2  free  transition at x/c =  0.7037   53

   6   rms: 0.6700E-05   max: -.9404E-04   D at   56  2
       a =  5.000      CL =  1.5962
      Cm = -0.2418     CD =  0.01741   =>   CDf =  0.00715    CDp =  0.01026

 Point added to stored polar  1
 Point written to save file  000111M0.04.log                                 
 Dump file unspecified or not available
 Calculating wake trajectory ...
 Calculating source influence matrix ...

 Solving BL system ...

 Side 1  free  transition at x/c =  0.4446   58
 Side 2  free  transition at x/c =  0.7037   53

   1   rms: 0.1934E+00   max: -.1748E+01   C at   53  2   RLX: 0.286
       a =  6.000      CL =  1.6266
      Cm = -0.2414     CD =  0.01761   =>   CDf =  0.00716    CDp =  0.01045

 Side 1  free  transition at x/c =  0.4400   58
 Side 2  free  transition at x/c =  0.7423   55

   2   rms: 0.1441E+00   max: -.1484E+01   C at   55  2   RLX: 0.337
       a =  6.000      CL =  1.6529
      Cm = -0.2412     CD =  0.01784   =>   CDf =  0.00683    CDp =  0.01101

 Side 1  free  transition at x/c =  0.4362   59
 Side 2  free  transition at x/c =  0.7739   56

   3   rms: 0.1241E+00   max: -.1664E+01   C at   56  2   RLX: 0.301
       a =  6.000      CL =  1.6682
      Cm = -0.2411     CD =  0.01800   =>   CDf =  0.00700    CDp =  0.01100

 Side 1  free  transition at x/c =  0.4342   59
 Side 2  free  transition at x/c =  0.7948   57

   4   rms: 0.9581E-01   max: -.1349E+01   C at   57  2   RLX: 0.371
       a =  6.000      CL =  1.6816
      Cm = -0.2411     CD =  0.01813   =>   CDf =  0.00698    CDp =  0.01116

 Side 1  free  transition at x/c =  0.4326   59
 Side 2  free  transition at x/c =  0.8205   59

   5   rms: 0.1232E+00   max: -.2044E+01   C at   59  2   RLX: 0.245
       a =  6.000      CL =  1.6864
      Cm = -0.2410     CD =  0.01817   =>   CDf =  0.00697    CDp =  0.01120

 Side 1  free  transition at x/c =  0.4319   59
 Side 2  free  transition at x/c =  0.8333   60

   6   rms: 0.1207E+00   max: -.1925E+01   C at   60  2   RLX: 0.260
       a =  6.000      CL =  1.6898
      Cm = -0.2408     CD =  0.01820   =>   CDf =  0.00698    CDp =  0.01122

 Side 1  free  transition at x/c =  0.4313   59
 Side 2  free  transition at x/c =  0.8487   60

   7   rms: 0.4934E-01   max: -.5881E+00   C at   60  2   RLX: 0.850
       a =  6.000      CL =  1.7022
      Cm = -0.2407     CD =  0.01840   =>   CDf =  0.00696    CDp =  0.01143

 Side 1  free  transition at x/c =  0.4298   58
 Side 2 forced transition at x/c =  1.0001   71

   8   rms: 0.2519E-01   max: 0.4036E+00   D at   60  2
       a =  6.000      CL =  1.6957
      Cm = -0.2388     CD =  0.01812   =>   CDf =  0.00685    CDp =  0.01127

 Side 1  free  transition at x/c =  0.4298   58
 Side 2 forced transition at x/c =  1.0001   71

   9   rms: 0.2052E-02   max: 0.2364E-01   D at   62  2
       a =  6.000      CL =  1.6956
      Cm = -0.2387     CD =  0.01811   =>   CDf =  0.00682    CDp =  0.01129

 Side 1  free  transition at x/c =  0.4298   58
 Side 2 forced transition at x/c =  1.0001   71

  10   rms: 0.3140E-04   max: 0.2760E-03   D at   58  2
       a =  6.000      CL =  1.6956
      Cm = -0.2387     CD =  0.01811   =>   CDf =  0.00682    CDp =  0.01129

 Point added to stored polar  1
 Point written to save file  000111M0.04.log                                 
 Dump file unspecified or not available
 Calculating wake trajectory ...
 Calculating source influence matrix ...

 Solving BL system ...

 Side 1  free  transition at x/c =  0.4298   58
 Side 2 forced transition at x/c =  1.0001   71

   1   rms: 0.1634E+00   max: -.3987E+00   n at   65  2
       a =  7.000      CL =  1.8006
      Cm = -0.2373     CD =  0.01907   =>   CDf =  0.00641    CDp =  0.01266

 Side 1  free  transition at x/c =  0.4131   59
 Side 2 forced transition at x/c =  1.0001   69

   2   rms: 0.2555E-01   max: -.3077E+00   D at   60  1
       a =  7.000      CL =  1.8043
      Cm = -0.2381     CD =  0.01955   =>   CDf =  0.00689    CDp =  0.01266

 Side 1  free  transition at x/c =  0.4149   60
 Side 2 forced transition at x/c =  1.0001   69

   3   rms: 0.6066E-02   max: 0.8702E-01   D at   60  1
       a =  7.000      CL =  1.8028
      Cm = -0.2377     CD =  0.01936   =>   CDf =  0.00680    CDp =  0.01256

 Side 1  free  transition at x/c =  0.4145   60
 Side 2 forced transition at x/c =  1.0001   69

   4   rms: 0.3725E-03   max: 0.3773E-02   D at   60  1
       a =  7.000      CL =  1.8027
      Cm = -0.2377     CD =  0.01936   =>   CDf =  0.00678    CDp =  0.01258

 Side 1  free  transition at x/c =  0.4145   60
 Side 2 forced transition at x/c =  1.0001   69

   5   rms: 0.7564E-05   max: 0.3141E-04   D at   92  1
       a =  7.000      CL =  1.8027
      Cm = -0.2377     CD =  0.01936   =>   CDf =  0.00678    CDp =  0.01257

 Point added to stored polar  1
 Point written to save file  000111M0.04.log                                 
 Dump file unspecified or not available
 Calculating wake trajectory ...
 Calculating source influence matrix ...

 Solving BL system ...

 Side 1  free  transition at x/c =  0.4145   60
 Side 2 forced transition at x/c =  1.0001   69

   1   rms: 0.1594E+00   max: -.2105E+00   n at   64  2
       a =  8.000      CL =  1.9172
      Cm = -0.2384     CD =  0.02154   =>   CDf =  0.00654    CDp =  0.01500

 Side 1  free  transition at x/c =  0.3887   59
 Side 2 forced transition at x/c =  1.0001   68

   2   rms: 0.7869E-01   max: -.6379E+00   D at   60  1   RLX: 0.784
       a =  8.000      CL =  1.9074
      Cm = -0.2363     CD =  0.02132   =>   CDf =  0.00653    CDp =  0.01479

 Side 1  free  transition at x/c =  0.3941   59
 Side 2 forced transition at x/c =  1.0001   68

   3   rms: 0.2132E-01   max: -.2305E+00   D at   60  1
       a =  8.000      CL =  1.9004
      Cm = -0.2348     CD =  0.02051   =>   CDf =  0.00668    CDp =  0.01383

 Side 1  free  transition at x/c =  0.3947   59
 Side 2 forced transition at x/c =  1.0001   68

   4   rms: 0.1597E-02   max: 0.1724E-01   D at   60  1
       a =  8.000      CL =  1.9009
      Cm = -0.2349     CD =  0.02053   =>   CDf =  0.00667    CDp =  0.01386

 Side 1  free  transition at x/c =  0.3944   59
 Side 2 forced transition at x/c =  1.0001   68

   5   rms: 0.2502E-04   max: -.1415E-03   C at   68  2
       a =  8.000      CL =  1.9009
      Cm = -0.2349     CD =  0.02053   =>   CDf =  0.00666    CDp =  0.01387

 Point added to stored polar  1
 Point written to save file  000111M0.04.log                                 
 Dump file unspecified or not available
 Calculating wake trajectory ...
 Calculating source influence matrix ...

 Solving BL system ...

 Side 1  free  transition at x/c =  0.3944   59
 Side 2 forced transition at x/c =  1.0001   68

   1   rms: 0.1444E+00   max: -.7976E+00   C at   59  1   RLX: 0.627
       a =  9.000      CL =  1.9489
      Cm = -0.2305     CD =  0.02088   =>   CDf =  0.00639    CDp =  0.01448

 Side 1  free  transition at x/c =  0.3747   59
 Side 2 forced transition at x/c =  1.0001   67

   2   rms: 0.5720E-01   max: -.3029E+00   C at   59  1
       a =  9.000      CL =  1.9790
      Cm = -0.2283     CD =  0.02147   =>   CDf =  0.00666    CDp =  0.01481

 Side 1  free  transition at x/c =  0.3669   59
 Side 2 forced transition at x/c =  1.0001   67

   3   rms: 0.6422E-02   max: -.4563E-01   D at   71  2
       a =  9.000      CL =  1.9839
      Cm = -0.2293     CD =  0.02156   =>   CDf =  0.00644    CDp =  0.01512

 Side 1  free  transition at x/c =  0.3668   59
 Side 2 forced transition at x/c =  1.0001   67

   4   rms: 0.9123E-04   max: 0.6312E-03   C at   67  2
       a =  9.000      CL =  1.9838
      Cm = -0.2293     CD =  0.02156   =>   CDf =  0.00644    CDp =  0.01512

 Point added to stored polar  1
 Point written to save file  000111M0.04.log                                 
 Dump file unspecified or not available
 Calculating wake trajectory ...
 Calculating source influence matrix ...

 Solving BL system ...

 Side 1  free  transition at x/c =  0.3668   59
 Side 2 forced transition at x/c =  1.0001   67

   1   rms: 0.1410E+00   max: -.5397E+00   D at   60  1   RLX: 0.926
       a = 10.000      CL =  2.0576
      Cm = -0.2236     CD =  0.02287   =>   CDf =  0.00614    CDp =  0.01673

 Side 1  free  transition at x/c =  0.3453   59
 Side 2 forced transition at x/c =  1.0001   66

   2   rms: 0.4224E-01   max: -.4191E+00   D at   59  1
       a = 10.000      CL =  2.0524
      Cm = -0.2210     CD =  0.02294   =>   CDf =  0.00625    CDp =  0.01669

 Side 1  free  transition at x/c =  0.3447   59
 Side 2 forced transition at x/c =  1.0001   66

   3   rms: 0.9621E-02   max: -.9808E-01   D at   60  1
       a = 10.000      CL =  2.0568
      Cm = -0.2221     CD =  0.02336   =>   CDf =  0.00624    CDp =  0.01712

 Side 1  free  transition at x/c =  0.3428   58
 Side 2 forced transition at x/c =  1.0001   66

   4   rms: 0.2632E-02   max: -.3730E-01   C at   58  1
       a = 10.000      CL =  2.0571
      Cm = -0.2221     CD =  0.02329   =>   CDf =  0.00628    CDp =  0.01701

 Side 1  free  transition at x/c =  0.3423   58
 Side 2 forced transition at x/c =  1.0001   66

   5   rms: 0.1612E-03   max: -.6844E-03   D at   76  2
       a = 10.000      CL =  2.0573
      Cm = -0.2221     CD =  0.02329   =>   CDf =  0.00625    CDp =  0.01704

 Side 1  free  transition at x/c =  0.3423   58
 Side 2 forced transition at x/c =  1.0001   66

   6   rms: 0.2509E-05   max: 0.2246E-04   C at   66  2
       a = 10.000      CL =  2.0573
      Cm = -0.2221     CD =  0.02329   =>   CDf =  0.00625    CDp =  0.01704

 Point added to stored polar  1
 Point written to save file  000111M0.04.log                                 
 Dump file unspecified or not available
 Calculating wake trajectory ...
 Calculating source influence matrix ...

 Solving BL system ...

 Side 1  free  transition at x/c =  0.3423   58
 Side 2 forced transition at x/c =  1.0001   66

   1   rms: 0.1293E+00   max: 0.4604E+00   T at   58  1
       a = 11.000      CL =  2.1211
      Cm = -0.2133     CD =  0.02498   =>   CDf =  0.00594    CDp =  0.01904

 Side 1  free  transition at x/c =  0.3040   57
 Side 2 forced transition at x/c =  1.0001   65

   2   rms: 0.2793E-01   max: 0.3397E+00   D at   58  1
       a = 11.000      CL =  2.1067
      Cm = -0.2112     CD =  0.02578   =>   CDf =  0.00619    CDp =  0.01959

 Side 1  free  transition at x/c =  0.3144   58
 Side 2 forced transition at x/c =  1.0001   65

   3   rms: 0.6306E-02   max: 0.7634E-01   C at   58  1
       a = 11.000      CL =  2.1083
      Cm = -0.2115     CD =  0.02578   =>   CDf =  0.00595    CDp =  0.01983

 Side 1  free  transition at x/c =  0.3122   58
 Side 2 forced transition at x/c =  1.0001   65

   4   rms: 0.3793E-03   max: -.4728E-02   D at   59  1
       a = 11.000      CL =  2.1084
      Cm = -0.2115     CD =  0.02579   =>   CDf =  0.00601    CDp =  0.01978

 Side 1  free  transition at x/c =  0.3122   58
 Side 2 forced transition at x/c =  1.0001   65

   5   rms: 0.1060E-04   max: -.4292E-04   D at   59  1
       a = 11.000      CL =  2.1084
      Cm = -0.2115     CD =  0.02579   =>   CDf =  0.00601    CDp =  0.01978

 Point added to stored polar  1
 Point written to save file  000111M0.04.log                                 
 Dump file unspecified or not available
 Calculating wake trajectory ...
 Calculating source influence matrix ...

 Solving BL system ...

 Side 1  free  transition at x/c =  0.3122   58
 Side 2 forced transition at x/c =  1.0001   65

   1   rms: 0.1369E+00   max: -.6872E+00   D at   58  1   RLX: 0.728
       a = 12.000      CL =  2.1320
      Cm = -0.2022     CD =  0.02872   =>   CDf =  0.00567    CDp =  0.02305

 Side 1  free  transition at x/c =  0.2812   57
 Side 2 forced transition at x/c =  1.0001   64

   2   rms: 0.4577E-01   max: -.4049E+00   D at   57  1
       a = 12.000      CL =  2.1406
      Cm = -0.1994     CD =  0.03012   =>   CDf =  0.00587    CDp =  0.02424

 Side 1  free  transition at x/c =  0.2656   56
 Side 2 forced transition at x/c =  1.0001   64

   3   rms: 0.6423E-02   max: -.8564E-01   D at   57  1
       a = 12.000      CL =  2.1404
      Cm = -0.1995     CD =  0.03005   =>   CDf =  0.00583    CDp =  0.02422

 Side 1  free  transition at x/c =  0.2661   56
 Side 2 forced transition at x/c =  1.0001   64

   4   rms: 0.3216E-03   max: -.4135E-02   D at   57  1
       a = 12.000      CL =  2.1405
      Cm = -0.1995     CD =  0.03004   =>   CDf =  0.00582    CDp =  0.02423

 Side 1  free  transition at x/c =  0.2659   56
 Side 2 forced transition at x/c =  1.0001   64

   5   rms: 0.5014E-05   max: -.3300E-04   C at   64  2
       a = 12.000      CL =  2.1405
      Cm = -0.1995     CD =  0.03004   =>   CDf =  0.00582    CDp =  0.02422

 Point added to stored polar  1
 Point written to save file  000111M0.04.log                                 
 Dump file unspecified or not available
 Calculating wake trajectory ...
 Calculating source influence matrix ...

 Solving BL system ...

 Side 1  free  transition at x/c =  0.2659   56
 Side 2 forced transition at x/c =  1.0001   64

   1   rms: 0.1613E+00   max: 0.1198E+01   C at   56  1   RLX: 0.586
       a = 13.000      CL =  2.1376
      Cm = -0.1904     CD =  0.03448   =>   CDf =  0.00547    CDp =  0.02901

 Side 1  free  transition at x/c =  0.2203   54
 Side 2 forced transition at x/c =  1.0001   63

   2   rms: 0.8589E-01   max: 0.6428E+00   C at   54  1
       a = 13.000      CL =  2.1150
      Cm = -0.1837     CD =  0.04034   =>   CDf =  0.00594    CDp =  0.03441

 Side 1  free  transition at x/c =  0.1762   51
 Side 2 forced transition at x/c =  1.0001   63

   3   rms: 0.2043E-01   max: -.2221E+00   C at   51  1
       a = 13.000      CL =  2.1073
      Cm = -0.1838     CD =  0.04114   =>   CDf =  0.00612    CDp =  0.03501

 Side 1  free  transition at x/c =  0.1815   51
 Side 2 forced transition at x/c =  1.0001   63

   4   rms: 0.1275E-02   max: 0.1425E-01   D at   88  1
       a = 13.000      CL =  2.1069
      Cm = -0.1838     CD =  0.04115   =>   CDf =  0.00601    CDp =  0.03514

 Side 1  free  transition at x/c =  0.1815   51
 Side 2 forced transition at x/c =  1.0001   63

   5   rms: 0.2643E-04   max: -.3745E-03   C at   51  1
       a = 13.000      CL =  2.1068
      Cm = -0.1838     CD =  0.04115   =>   CDf =  0.00601    CDp =  0.03514

 Point added to stored polar  1
 Point written to save file  000111M0.04.log                                 
 Dump file unspecified or not available
 Calculating wake trajectory ...
 Calculating source influence matrix ...

 Solving BL system ...

 Side 1  free  transition at x/c =  0.1815   51
 Side 2 forced transition at x/c =  1.0001   63

   1   rms: 0.2626E+00   max: 0.3678E+01   C at   51  1   RLX: 0.408
       a = 14.000      CL =  2.0754
      Cm = -0.1782     CD =  0.04889   =>   CDf =  0.00603    CDp =  0.04286

 Side 1  free  transition at x/c =  0.1382   48
 Side 2 forced transition at x/c =  1.0001   63

   2   rms: 0.1581E+00   max: 0.1346E+01   C at   48  1
       a = 14.000      CL =  2.0119
      Cm = -0.1737     CD =  0.06486   =>   CDf =  0.00628    CDp =  0.05858

 Side 1  free  transition at x/c =  0.1093   46
 Side 2 forced transition at x/c =  1.0001   63

   3   rms: 0.4292E-01   max: 0.3700E+00   D at   81  1
       a = 14.000      CL =  2.0049
      Cm = -0.1763     CD =  0.06665   =>   CDf =  0.00625    CDp =  0.06040

 Side 1  free  transition at x/c =  0.1123   46
 Side 2 forced transition at x/c =  1.0001   63

   4   rms: 0.6176E-02   max: 0.6131E-01   D at   78  1
       a = 14.000      CL =  2.0040
      Cm = -0.1760     CD =  0.06596   =>   CDf =  0.00606    CDp =  0.05990

 Side 1  free  transition at x/c =  0.1124   46
 Side 2 forced transition at x/c =  1.0001   63

   5   rms: 0.2711E-03   max: -.2515E-02   D at   78  1
       a = 14.000      CL =  2.0039
      Cm = -0.1760     CD =  0.06590   =>   CDf =  0.00605    CDp =  0.05985

 Side 1  free  transition at x/c =  0.1125   46
 Side 2 forced transition at x/c =  1.0001   63

   6   rms: 0.1189E-04   max: 0.1632E-03   C at   46  1
       a = 14.000      CL =  2.0039
      Cm = -0.1760     CD =  0.06590   =>   CDf =  0.00605    CDp =  0.05985

 Point added to stored polar  1
 Point written to save file  000111M0.04.log                                 
 Dump file unspecified or not available
 Calculating wake trajectory ...
 Calculating source influence matrix ...

 Solving BL system ...

 Side 1  free  transition at x/c =  0.1125   46
 Side 2 forced transition at x/c =  1.0001   63

   1   rms: 0.2434E+00   max: 0.2248E+01   C at   46  1   RLX: 0.503
       a = 15.000      CL =  1.9556
      Cm = -0.1763     CD =  0.08217   =>   CDf =  0.00608    CDp =  0.07610

 Side 1  free  transition at x/c =  0.0956   44
 Side 2 forced transition at x/c =  1.0001   63

   2   rms: 0.9921E-01   max: 0.6179E+00   D at   74  1
       a = 15.000      CL =  1.9253
      Cm = -0.1765     CD =  0.09444   =>   CDf =  0.00601    CDp =  0.08843

 Side 1  free  transition at x/c =  0.0809   43
 Side 2 forced transition at x/c =  1.0001   63

   3   rms: 0.3157E-01   max: 0.2239E+00   D at   72  1
       a = 15.000      CL =  1.9085
      Cm = -0.1766     CD =  0.09493   =>   CDf =  0.00593    CDp =  0.08900

 Side 1  free  transition at x/c =  0.0847   43
 Side 2 forced transition at x/c =  1.0001   63

   4   rms: 0.3496E-02   max: -.4567E-01   C at   43  1
       a = 15.000      CL =  1.9071
      Cm = -0.1763     CD =  0.09433   =>   CDf =  0.00579    CDp =  0.08853

 Side 1  free  transition at x/c =  0.0851   43
 Side 2 forced transition at x/c =  1.0001   63

   5   rms: 0.1796E-03   max: 0.2855E-02   D at   79  2
       a = 15.000      CL =  1.9072
      Cm = -0.1763     CD =  0.09428   =>   CDf =  0.00578    CDp =  0.08849

 Side 1  free  transition at x/c =  0.0851   43
 Side 2 forced transition at x/c =  1.0001   63

   6   rms: 0.1553E-04   max: 0.1006E-03   C at   63  2
       a = 15.000      CL =  1.9072
      Cm = -0.1763     CD =  0.09428   =>   CDf =  0.00578    CDp =  0.08849

 Point added to stored polar  1
 Point written to save file  000111M0.04.log                                 
 Dump file unspecified or not available

.OPERva   c>  
 XFOIL   c>  
0.1
resp: 
 ===================================================
  XFOIL Version 6.97
  Copyright (C) 2000   Mark Drela, Harold Youngren

  This software comes with ABSOLUTELY NO WARRANTY,
    subject to the GNU General Public License.

  Caveat computor
 ===================================================

 File  xfoil.def  not found

   QUIT    Exit program

  .OPER    Direct operating point(s)
  .MDES    Complex mapping design routine
  .QDES    Surface speed design routine
  .GDES    Geometry design routine

   SAVE f  Write airfoil to labeled coordinate file
   PSAV f  Write airfoil to plain coordinate file
   ISAV f  Write airfoil to ISES coordinate file
   MSAV f  Write airfoil to MSES coordinate file
   REVE    Reverse written-airfoil node ordering
   DELI i  Change written-airfoil file delimiters

   LOAD f  Read buffer airfoil from coordinate file
   NACA i  Set NACA 4,5-digit airfoil and buffer airfoil
   INTE    Set buffer airfoil by interpolating two airfoils
   NORM    Buffer airfoil normalization toggle
   HALF    Halve the number of points in buffer airfoil
   XYCM rr Change CM reference location, currently  0.25000 0.00000

   BEND    Display structural properties of current airfoil

   PCOP    Set current-airfoil panel nodes directly from buffer airfoil points
   PANE    Set current-airfoil panel nodes ( 160 ) based on curvature
  .PPAR    Show/change paneling

  .PLOP    Plotting options

   WDEF f  Write  current-settings file
   RDEF f  Reread current-settings file
   NAME s  Specify new airfoil name
   NINC    Increment name version number

   Z       Zoom    | (available in all menus)
   U       Unzoom  | 

 XFOIL   c>   ...............................................

  G raphics-enable flag:        T
  S ize of plot object          10.00"
  A spect ratio of plot object   0.5500
  P age dimensions              11.00 x  8.50"
  M argins from page edges       0.00",  0.00"
  F ont size (relative)          0.0150
  W indow/screen size fraction   0.8000
  B lowup input method:        Cursor    
  O rientation of plot:        Landscape 
  C olor PostScript output?     F

      Option, Value   (or <Return>)    c>   ...............................................

  G raphics-enable flag:        F
  S ize of plot object          10.00"
  A spect ratio of plot object   0.5500
  P age dimensions              11.00 x  8.50"
  M argins from page edges       0.00",  0.00"
  F ont size (relative)          0.0150
  W indow/screen size fraction   0.8000
  B lowup input method:        Cursor    
  O rientation of plot:        Landscape 
  C olor PostScript output?     F

      Option, Value   (or <Return>)    c>  
 XFOIL   c>  
 Labeled airfoil file.  Name:  000111                                          

 Number of input coordinate points: 200
 Clockwise ordering
 Max thickness =     0.139472  at x =   0.219
 Max camber    =     0.071047  at x =   0.484

  LE  x,y  =  -0.00000   0.00025  |   Chord =   0.99988
  TE  x,y  =   0.99988   0.00006  |

 Current airfoil nodes set from buffer airfoil nodes ( 200 )

 XFOIL   c>  
 You are working with the buffer airfoil

.GDES   c>  
  i       x        y      angle
   2   0.9990   0.0005    0.114
   3   0.9978   0.0011    0.183
   4   0.9961   0.0019    0.198
   5   0.9938   0.0030    0.266
   6   0.9911   0.0042    0.327
   7   0.9880   0.0057    0.374
   8   0.9843   0.0074    0.410
   9   0.9801   0.0093    0.470
  10   0.9755   0.0113    0.489
  11   0.9704   0.0135    0.531
  12   0.9649   0.0158    0.566
  13   0.9589   0.0182    0.591
  14   0.9524   0.0207    0.608
  15   0.9455   0.0234    0.632
  16   0.9382   0.0261    0.647
  17   0.9304   0.0289    0.643
  18   0.9222   0.0317    0.658
  19   0.9135   0.0345    0.648
  20   0.9045   0.0374    0.635
  21   0.8951   0.0403    0.630
  22   0.8853   0.0432    0.616
  23   0.8751   0.0461    0.583
  24   0.8645   0.0489    0.570
  25   0.8536   0.0518    0.533
  26   0.8423   0.0546    0.502
  27   0.8307   0.0574    0.476
  28   0.8187   0.0602    0.436
  29   0.8065   0.0630    0.405
  30   0.7939   0.0657    0.367
  31   0.7810   0.0684    0.333
  32   0.7679   0.0711    0.299
  33   0.7545   0.0738    0.268
  34   0.7409   0.0764    0.240
  35   0.7270   0.0790    0.209
  36   0.7129   0.0817    0.195
  37   0.6986   0.0843    0.167
  38   0.6841   0.0869    0.161
  39   0.6694   0.0895    0.145
  40   0.6545   0.0921    0.142
  41   0.6395   0.0947    0.147
  42   0.6243   0.0972    0.148
  43   0.6091   0.0998    0.159
  44   0.5937   0.1023    0.181
  45   0.5782   0.1048    0.198
  46   0.5627   0.1072    0.233
  47   0.5471   0.1096    0.258
  48   0.5314   0.1119    0.299
  49   0.5157   0.1141    0.340
  50   0.5000   0.1163    0.391
  51   0.4843   0.1183    0.435
  52   0.4686   0.1202    0.495
  53   0.4529   0.1220    0.547
  54   0.4373   0.1236    0.608
  55   0.4218   0.1251    0.669
  56   0.4063   0.1263    0.728
  57   0.3909   0.1274    0.795
  58   0.3757   0.1282    0.854
  59   0.3605   0.1288    0.917
  60   0.3455   0.1291    0.969
  61   0.3306   0.1292    1.033
  62   0.3159   0.1291    1.086
  63   0.3014   0.1286    1.131
  64   0.2871   0.1279    1.176
  65   0.2730   0.1269    1.221
  66   0.2591   0.1256    1.251
  67   0.2455   0.1241    1.288
  68   0.2321   0.1222    1.298
  69   0.2190   0.1201    1.327
  70   0.2061   0.1177    1.337
  71   0.1935   0.1151    1.338
  72   0.1813   0.1123    1.349
  73   0.1693   0.1092    1.338
  74   0.1577   0.1059    1.345
  75   0.1464   0.1024    1.332
  76   0.1355   0.0988    1.320
  77   0.1249   0.0950    1.319
  78   0.1147   0.0910    1.322
  79   0.1049   0.0870    1.313
  80   0.0955   0.0828    1.316
  81   0.0865   0.0786    1.336
  82   0.0778   0.0743    1.367
  83   0.0696   0.0700    1.398
  84   0.0618   0.0656    1.454
  85   0.0545   0.0613    1.534
  86   0.0476   0.0569    1.638
  87   0.0411   0.0526    1.769
  88   0.0351   0.0483    1.940
  89   0.0296   0.0441    2.161
  90   0.0245   0.0398    2.417
  91   0.0199   0.0357    2.772
  92   0.0157   0.0316    3.163
  93   0.0120   0.0275    3.633
  94   0.0089   0.0235    4.217
  95   0.0062   0.0195    4.836
  96   0.0039   0.0155    5.509
  97   0.0022   0.0116    6.194
  98   0.0010   0.0077    6.764
  99   0.0002   0.0039    7.168
 100   0.0000   0.0000    8.333
 101   0.0002  -0.0030    9.190
 102   0.0010  -0.0060    8.785
 103   0.0022  -0.0090    8.233
 104   0.0039  -0.0119    7.522
 105   0.0062  -0.0147    6.823
 106   0.0089  -0.0173    6.136
 107   0.0120  -0.0199    5.472
 108   0.0157  -0.0223    4.920
 109   0.0199  -0.0245    4.388
 110   0.0245  -0.0265    3.928
 111   0.0296  -0.0284    3.513
 112   0.0351  -0.0300    3.163
 113   0.0411  -0.0314    2.831
 114   0.0476  -0.0326    2.557
 115   0.0545  -0.0336    2.296
 116   0.0618  -0.0343    2.057
 117   0.0696  -0.0348    1.847
 118   0.0778  -0.0350    1.655
 119   0.0865  -0.0350    1.485
 120   0.0955  -0.0348    1.315
 121   0.1049  -0.0343    1.174
 122   0.1147  -0.0336    1.042
 123   0.1249  -0.0328    0.910
 124   0.1355  -0.0317    0.797
 125   0.1464  -0.0304    0.696
 126   0.1577  -0.0289    0.591
 127   0.1693  -0.0273    0.508
 128   0.1813  -0.0255    0.425
 129   0.1935  -0.0236    0.344
 130   0.2061  -0.0215    0.276
 131   0.2190  -0.0194    0.213
 132   0.2321  -0.0171    0.157
 133   0.2455  -0.0148    0.102
 134   0.2591  -0.0123    0.048
 135   0.2730  -0.0099    0.013
 136   0.2871  -0.0074   -0.029
 137   0.3014  -0.0048   -0.072
 138   0.3159  -0.0023   -0.094
 139   0.3306   0.0003   -0.132
 140   0.3455   0.0028   -0.152
 141   0.3605   0.0054   -0.182
 142   0.3757   0.0079   -0.198
 143   0.3909   0.0104   -0.216
 144   0.4063   0.0128   -0.238
 145   0.4218   0.0152   -0.255
 146   0.4373   0.0175   -0.267
 147   0.4529   0.0198   -0.282
 148   0.4686   0.0220   -0.295
 149   0.4843   0.0241   -0.312
 150   0.5000   0.0261   -0.327
 151   0.5157   0.0281   -0.335
 152   0.5314   0.0299   -0.355
 153   0.5471   0.0316   -0.370
 154   0.5627   0.0333   -0.384
 155   0.5782   0.0348   -0.402
 156   0.5937   0.0362   -0.420
 157   0.6091   0.0375   -0.444
 158   0.6243   0.0386   -0.462
 159   0.6395   0.0397   -0.481
 160   0.6545   0.0405   -0.508
 161   0.6694   0.0413   -0.528
 162   0.6841   0.0419   -0.554
 163   0.6986   0.0423   -0.579
 164   0.7129   0.0426   -0.603
 165   0.7270   0.0428   -0.634
 166   0.7409   0.0428   -0.656
 167   0.7545   0.0426   -0.680
 168   0.7679   0.0423   -0.712
 169   0.7810   0.0418   -0.726
 170   0.7939   0.0412   -0.751
 171   0.8065   0.0404   -0.776
 172   0.8187   0.0395   -0.790
 173   0.8307   0.0384   -0.807
 174   0.8423   0.0372   -0.824
 175   0.8536   0.0359   -0.827
 176   0.8645   0.0344   -0.838
 177   0.8751   0.0329   -0.844
 178   0.8853   0.0312   -0.839
 179   0.8951   0.0295   -0.844
 180   0.9045   0.0276   -0.823
 181   0.9135   0.0257   -0.812
 182   0.9222   0.0238   -0.809
 183   0.9304   0.0219   -0.772
 184   0.9382   0.0199   -0.760
 185   0.9455   0.0180   -0.732
 186   0.9524   0.0160   -0.692
 187   0.9589   0.0141   -0.661
 188   0.9649   0.0123   -0.615
 189   0.9704   0.0105   -0.595
 190   0.9755   0.0088   -0.528
 191   0.9801   0.0073   -0.492
 192   0.9843   0.0058   -0.446
 193   0.9880   0.0045   -0.377
 194   0.9911   0.0034   -0.363
 195   0.9938   0.0024   -0.256
 196   0.9961   0.0015   -0.247
 197   0.9978   0.0009   -0.164
 198   0.9990   0.0004   -0.115
 199   0.9998   0.0001   -0.041

 Maximum panel corner angle =  9.190   at  i,x,y  = 101   0.0002  -0.0030

 Enter corner angle criterion for refinement (deg):   4.595
 Enter type of spline parameter (1=uniform, 2=arclength):   1
 Enter refinement x limits:  -0.10000   1.10000
 Number of points added:           28
 Max thickness =     0.139467  at x =   0.219
 Max camber    =     0.071174  at x =   0.484

 Maximum panel corner angle =  3.928   at  i,x,y  = 138   0.0245  -0.0265

.GDES   c>  
 Buffer airfoil is not identical to current airfoil

 XFOIL   c>  
 Blunt trailing edge.  Gap =  0.00028

 Paneling parameters used...
   Number of panel nodes       160
   Panel bunching parameter    1.000
   TE/LE panel density ratio   0.150
   Refined-area/LE panel density ratio    0.200
   Top    side refined area x/c limits  1.000 1.000
   Bottom side refined area x/c limits  1.000 1.000

 XFOIL   c>  
.OPERi   c>   Current iteration limit:          20

Enter new iteration limit   i>  
Enter new iteration limit   i>  
Enter new iteration limit   i>  
.OPERi   c>  
 M  =    0.0000
 Re =  0.3000E+06

.OPERv   c>  
 Sonic Cp =    -66.86      Sonic Q/Qinf =     9.138


.OPERv   c>  
 Polar  1 newly created for accumulation
 Airfoil archived with polar: 000111                                          

Enter  polar save filename  OR  <return> for no file   s>  
 New polar save file available

Enter  polar dump filename  OR  <return> for no file   s>  
 Polar dump file will NOT be written

 Polar accumulation enabled

.OPERva   c>   Calculating unit vorticity distributions ...
 Calculating wake trajectory ...
 Calculating source influence matrix ...

 Solving BL system ...

 Initializing BL ...
    side            1  ...
 MRCHUE: Inverse mode at  49     Hk =   4.064
 MRCHUE: Inverse mode at  50     Hk =   4.885
 MRCHUE: Inverse mode at  51     Hk =   5.689
 MRCHUE: Inverse mode at  52     Hk =   6.482
 MRCHUE: Inverse mode at  53     Hk =   7.270
 MRCHUE: Inverse mode at  54     Hk =   8.054
 MRCHUE: Inverse mode at  55     Hk =   8.837
 MRCHUE: Inverse mode at  56     Hk =   9.145
 MRCHUE: Inverse mode at  57     Hk =   5.492
 MRCHUE: Inverse mode at  58     Hk =   3.719
 MRCHUE: Inverse mode at  59     Hk =   2.518
    side            2  ...
 MRCHUE: Inverse mode at  30     Hk =   4.259
 MRCHUE: Inverse mode at  31     Hk =   5.132
 MRCHUE: Inverse mode at  32     Hk =   5.974
 MRCHUE: Inverse mode at  33     Hk =   6.792
 MRCHUE: Inverse mode at  34     Hk =   7.585
 MRCHUE: Inverse mode at  35     Hk =   8.354
 MRCHUE: Inverse mode at  36     Hk =   9.099
 MRCHUE: Inverse mode at  37     Hk =   7.517
 MRCHUE: Inverse mode at  38     Hk =   4.966
 MRCHUE: Inverse mode at  39     Hk =   3.426
 MRCHUE: Inverse mode at  77     Hk =   1.669

 Side 1  free  transition at x/c =  0.4662   56
 Side 2  free  transition at x/c =  0.3443   37

   1   rms: 0.1983E+00   max: -.1176E+01   T at   56  1   RLX: 0.425
       a =  2.000      CL =  1.3505
      Cm = -0.2610     CD =  0.01942   =>   CDf =  0.00871    CDp =  0.01071

 MRCHDU: Convergence failed at  57  side 1    Res =  0.2305E+02
 MRCHDU: Convergence failed at  58  side 1    Res =  0.5075E+01
 MRCHDU: Convergence failed at  59  side 1    Res =  0.5153E+01
 MRCHDU: Convergence failed at  60  side 1    Res =  0.2746E+01
 MRCHDU: Convergence failed at  61  side 1    Res =  0.2795E+01
 MRCHDU: Convergence failed at  62  side 1    Res =  0.2898E+01
 MRCHDU: Convergence failed at  63  side 1    Res =  0.3018E+01
 MRCHDU: Convergence failed at  64  side 1    Res =  0.3269E+01
 MRCHDU: Convergence failed at  65  side 1    Res =  0.3581E+01
 MRCHDU: Convergence failed at  66  side 1    Res =  0.3939E+01
 MRCHDU: Convergence failed at  67  side 1    Res =  0.4347E+01
 MRCHDU: Convergence failed at  68  side 1    Res =  0.4805E+01
 MRCHDU: Convergence failed at  69  side 1    Res =  0.5306E+01
 MRCHDU: Convergence failed at  70  side 1    Res =  0.5879E+01
 MRCHDU: Convergence failed at  71  side 1    Res =  0.6525E+01
 MRCHDU: Convergence failed at  72  side 1    Res =  0.7325E+01
 MRCHDU: Convergence failed at  73  side 1    Res =  0.8326E+01
 MRCHDU: Convergence failed at  74  side 1    Res =  0.9663E+01
 MRCHDU: Convergence failed at  75  side 1    Res =  0.1161E+02
 MRCHDU: Convergence failed at  76  side 1    Res =  0.1476E+02
 MRCHDU: Convergence failed at  77  side 1    Res =  0.2024E+02
 MRCHDU: Convergence failed at  78  side 1    Res =  0.3251E+02
 MRCHDU: Convergence failed at  79  side 1    Res =  0.7783E+02
 MRCHDU: Convergence failed at  80  side 1    Res =  0.2056E+03
 MRCHDU: Convergence failed at  81  side 1    Res =  0.1023E+02
 MRCHDU: Convergence failed at  82  side 1    Res =  0.1315E+02
 MRCHDU: Convergence failed at  83  side 1    Res =  0.2936E+02
 MRCHDU: Convergence failed at  84  side 1    Res =  0.2177E+02
 MRCHDU: Convergence failed at  85  side 1    Res =  0.9460E+02
 MRCHDU: Convergence failed at  86  side 1    Res =  0.1829E+02
 Side 1  free  transition at x/c =  0.4855   56
 Side 2  free  transition at x/c =  0.3534   38

   2   rms: 0.6697E+00   max: 0.3633E+01   D at   78  2   RLX: 0.413
       a =  2.000      CL =  1.4999
      Cm = -0.3696     CD =  0.00831   =>   CDf =  0.00522    CDp =  0.00308

 MRCHDU: Convergence failed at  60  side 1    Res =  0.2744E-01
 MRCHDU: Convergence failed at  69  side 1    Res =  0.3453E-01
 MRCHDU: Convergence failed at  78  side 2    Res =  0.3637E+01
 MRCHDU: Convergence failed at  80  side 2    Res =  0.3005E+01
 MRCHDU: Convergence failed at  81  side 2    Res =  0.1174E+02
 MRCHDU: Convergence failed at  82  side 2    Res =  0.2954E+01
 MRCHDU: Convergence failed at  83  side 2    Res =  0.1673E+01
 MRCHDU: Convergence failed at  84  side 2    Res =  0.3041E+01
 Side 1  free  transition at x/c =  0.4696   56
 Side 2  free  transition at x/c =  0.3541   39

   3   rms: 0.2493E+00   max: -.1009E+01   D at   65  1   RLX: 0.496
       a =  2.000      CL =  1.2474
      Cm = -0.2549     CD =  0.02743   =>   CDf =  0.00645    CDp =  0.02098

 MRCHDU: Convergence failed at  69  side 1    Res =  0.3246E-01
 Side 1  free  transition at x/c =  0.4789   56
 Side 2  free  transition at x/c =  0.3515   38

   4   rms: 0.3371E+00   max: -.1748E+01   D at   64  1   RLX: 0.286
       a =  2.000      CL =  1.1866
      Cm = -0.2331     CD =  0.02633   =>   CDf =  0.00650    CDp =  0.01983

 Side 1  free  transition at x/c =  0.4954   56
 Side 2  free  transition at x/c =  0.3461   39

   5   rms: 0.7001E+00   max: -.3963E+01   D at   63  1   RLX: 0.126
       a =  2.000      CL =  1.1387
      Cm = -0.2275     CD =  0.02566   =>   CDf =  0.00659    CDp =  0.01907

 MRCHDU: Convergence failed at  61  side 1    Res =  0.6625E+00
 MRCHDU: Convergence failed at  62  side 1    Res =  0.3911E+00
 MRCHDU: Convergence failed at  63  side 1    Res =  0.6483E+00
 MRCHDU: Convergence failed at  64  side 1    Res =  0.5479E+00
 MRCHDU: Convergence failed at  65  side 1    Res =  0.6269E+00
 MRCHDU: Convergence failed at  66  side 1    Res =  0.2462E+01
 MRCHDU: Convergence failed at  67  side 1    Res =  0.1348E+01
 Side 1  free  transition at x/c =  0.5009   56
 Side 2  free  transition at x/c =  0.3348   39

   6   rms: 0.3774E+00   max: -.1511E+01   D at   73  1   RLX: 0.331
       a =  2.000      CL =  1.3183
      Cm = -0.2770     CD =  0.02138   =>   CDf =  0.00865    CDp =  0.01273

 Side 1  free  transition at x/c =  0.5019   57
 Side 2  free  transition at x/c =  0.3470   38

   7   rms: 0.7713E+00   max: -.3860E+01   D at   76  1   RLX: 0.130
       a =  2.000      CL =  1.3539
      Cm = -0.2768     CD =  0.01758   =>   CDf =  0.00809    CDp =  0.00949

 Side 1  free  transition at x/c =  0.5026   57
 Side 2  free  transition at x/c =  0.3593   39

   8   rms: 0.5202E+00   max: -.2656E+01   D at   79  1   RLX: 0.188
       a =  2.000      CL =  1.3858
      Cm = -0.2795     CD =  0.01548   =>   CDf =  0.00813    CDp =  0.00735

 Side 1  free  transition at x/c =  0.5016   57
 Side 2  free  transition at x/c =  0.3682   39

   9   rms: 0.2593E+00   max: -.1498E+01   D at   79  1   RLX: 0.334
       a =  2.000      CL =  1.3721
      Cm = -0.2717     CD =  0.01422   =>   CDf =  0.00812    CDp =  0.00610

 Side 1  free  transition at x/c =  0.4994   57
 Side 2  free  transition at x/c =  0.3729   39

  10   rms: 0.1358E+00   max: -.7354E+00   D at   78  1   RLX: 0.680
       a =  2.000      CL =  1.3127
      Cm = -0.2538     CD =  0.01428   =>   CDf =  0.00810    CDp =  0.00619

 Side 1  free  transition at x/c =  0.4950   57
 Side 2  free  transition at x/c =  0.3728   39

  11   rms: 0.5273E-01   max: -.2484E+00   D at   83  1
       a =  2.000      CL =  1.2643
      Cm = -0.2432     CD =  0.01514   =>   CDf =  0.00803    CDp =  0.00711

 Side 1  free  transition at x/c =  0.4925   57
 Side 2  free  transition at x/c =  0.3667   39

  12   rms: 0.4778E-02   max: -.3668E-01   D at   86  1
       a =  2.000      CL =  1.2608
      Cm = -0.2427     CD =  0.01521   =>   CDf =  0.00800    CDp =  0.00721

 Side 1  free  transition at x/c =  0.4926   57
 Side 2  free  transition at x/c =  0.3661   39

  13   rms: 0.8972E-04   max: -.9323E-03   D at   86  1
       a =  2.000      CL =  1.2608
      Cm = -0.2426     CD =  0.01520   =>   CDf =  0.00799    CDp =  0.00721

 Point added to stored polar  1
 Point written to save file  000111M0.1.log                                  
 Dump file unspecified or not available
 Calculating wake trajectory ...
 Calculating source influence matrix ...

 Solving BL system ...

 Side 1  free  transition at x/c =  0.4926   57
 Side 2  free  transition at x/c =  0.3661   39

   1   rms: 0.1693E+00   max: -.1095E+01   T at   39  2   RLX: 0.457
       a =  3.000      CL =  1.3136
      Cm = -0.2427     CD =  0.01550   =>   CDf =  0.00785    CDp =  0.00765

 Side 1  free  transition at x/c =  0.4850   57
 Side 2  free  transition at x/c =  0.3976   40

   2   rms: 0.1123E+00   max: 0.6818E+00   D at   40  2   RLX: 0.871
       a =  3.000      CL =  1.3693
      Cm = -0.2431     CD =  0.01562   =>   CDf =  0.00805    CDp =  0.00756

 Side 1  free  transition at x/c =  0.4762   57
 Side 2  free  transition at x/c =  0.4265   41

   3   rms: 0.3472E-01   max: -.2994E+00   T at   41  2
       a =  3.000      CL =  1.3774
      Cm = -0.2430     CD =  0.01591   =>   CDf =  0.00793    CDp =  0.00798

 Side 1  free  transition at x/c =  0.4752   57
 Side 2  free  transition at x/c =  0.4497   42

   4   rms: 0.1252E-01   max: -.2107E+00   C at   42  2
       a =  3.000      CL =  1.3776
      Cm = -0.2431     CD =  0.01587   =>   CDf =  0.00785    CDp =  0.00802

 Side 1  free  transition at x/c =  0.4752   57
 Side 2  free  transition at x/c =  0.4460   42

   5   rms: 0.7658E-03   max: 0.1081E-01   C at   42  2
       a =  3.000      CL =  1.3776
      Cm = -0.2431     CD =  0.01588   =>   CDf =  0.00780    CDp =  0.00808

 Side 1  free  transition at x/c =  0.4752   57
 Side 2  free  transition at x/c =  0.4458   42

   6   rms: 0.3482E-05   max: -.3718E-04   D at   44  2
       a =  3.000      CL =  1.3776
      Cm = -0.2431     CD =  0.01588   =>   CDf =  0.00780    CDp =  0.00808

 Point added to stored polar  1
 Point written to save file  000111M0.1.log                                  
 Dump file unspecified or not available
 Calculating wake trajectory ...
 Calculating source influence matrix ...

 Solving BL system ...

 Side 1  free  transition at x/c =  0.4752   57
 Side 2  free  transition at x/c =  0.4458   42

   1   rms: 0.1697E+00   max: -.1003E+01   T at   42  2   RLX: 0.499
       a =  4.000      CL =  1.4349
      Cm = -0.2431     CD =  0.01624   =>   CDf =  0.00764    CDp =  0.00861

 MRCHDU: Convergence failed at  44  side 2    Res =  0.5526E+01
 MRCHDU: Convergence failed at  45  side 2    Res =  0.1620E+01
 MRCHDU: Convergence failed at  46  side 2    Res =  0.2894E+01
 MRCHDU: Convergence failed at  47  side 2    Res =  0.5258E+01
 MRCHDU: Convergence failed at  48  side 2    Res =  0.1171E+02
 MRCHDU: Convergence failed at  49  side 2    Res =  0.2434E+02
 MRCHDU: Convergence failed at  50  side 2    Res =  0.4431E+02
 MRCHDU: Convergence failed at  51  side 2    Res =  0.5777E+02
 MRCHDU: Convergence failed at  52  side 2    Res =  0.5196E+02
 MRCHDU: Convergence failed at  53  side 2    Res =  0.3996E+02
 MRCHDU: Convergence failed at  54  side 2    Res =  0.3062E+02
 MRCHDU: Convergence failed at  55  side 2    Res =  0.2441E+02
 MRCHDU: Convergence failed at  56  side 2    Res =  0.2044E+02
 MRCHDU: Convergence failed at  57  side 2    Res =  0.1777E+02
 MRCHDU: Convergence failed at  58  side 2    Res =  0.1583E+02
 MRCHDU: Convergence failed at  59  side 2    Res =  0.1431E+02
 MRCHDU: Convergence failed at  60  side 2    Res =  0.1329E+02
 MRCHDU: Convergence failed at  61  side 2    Res =  0.1249E+02
 MRCHDU: Convergence failed at  62  side 2    Res =  0.1179E+02
 MRCHDU: Convergence failed at  63  side 2    Res =  0.1110E+02
 MRCHDU: Convergence failed at  64  side 2    Res =  0.1036E+02
 MRCHDU: Convergence failed at  65  side 2    Res =  0.9306E+01
 MRCHDU: Convergence failed at  66  side 2    Res =  0.8298E+01
 MRCHDU: Convergence failed at  67  side 2    Res =  0.6917E+01
 MRCHDU: Convergence failed at  68  side 2    Res =  0.5338E+01
 MRCHDU: Convergence failed at  69  side 2    Res =  0.3773E+01
 MRCHDU: Convergence failed at  70  side 2    Res =  0.2356E+01
 Side 1  free  transition at x/c =  0.4670   57
 Side 2  free  transition at x/c =  0.4980   44

   2   rms: 0.2211E+00   max: -.9975E+00   D at   69  2   RLX: 0.501
       a =  4.000      CL =  1.4560
      Cm = -0.2355     CD =  0.01613   =>   CDf =  0.00667    CDp =  0.00946

 Side 1  free  transition at x/c =  0.4623   57
 Side 2  free  transition at x/c =  0.5404   46

   3   rms: 0.5209E-01   max: -.2788E+00   D at   70  2
       a =  4.000      CL =  1.4933
      Cm = -0.2433     CD =  0.01666   =>   CDf =  0.00757    CDp =  0.00909

 Side 1  free  transition at x/c =  0.4588   58
 Side 2  free  transition at x/c =  0.5627   46

   4   rms: 0.1536E-01   max: 0.2500E+00   C at   46  2
       a =  4.000      CL =  1.4924
      Cm = -0.2431     CD =  0.01665   =>   CDf =  0.00746    CDp =  0.00919

 Side 1  free  transition at x/c =  0.4588   58
 Side 2  free  transition at x/c =  0.5577   46

   5   rms: 0.1789E-02   max: -.2380E-01   D at   49  2
       a =  4.000      CL =  1.4924
      Cm = -0.2431     CD =  0.01666   =>   CDf =  0.00749    CDp =  0.00917

 Side 1  free  transition at x/c =  0.4588   58
 Side 2  free  transition at x/c =  0.5565   46

   6   rms: 0.3416E-04   max: -.4469E-03   C at   46  2
       a =  4.000      CL =  1.4924
      Cm = -0.2431     CD =  0.01666   =>   CDf =  0.00749    CDp =  0.00917

 Point added to stored polar  1
 Point written to save file  000111M0.1.log                                  
 Dump file unspecified or not available
 Calculating wake trajectory ...
 Calculating source influence matrix ...

 Solving BL system ...

 Side 1  free  transition at x/c =  0.4588   58
 Side 2  free  transition at x/c =  0.5565   46

   1   rms: 0.1858E+00   max: -.1270E+01   C at   46  2   RLX: 0.394
       a =  5.000      CL =  1.5368
      Cm = -0.2429     CD =  0.01696   =>   CDf =  0.00750    CDp =  0.00946

 Side 1  free  transition at x/c =  0.4523   58
 Side 2  free  transition at x/c =  0.6016   48

   2   rms: 0.1202E+00   max: -.1189E+01   C at   48  2   RLX: 0.420
       a =  5.000      CL =  1.5656
      Cm = -0.2428     CD =  0.01738   =>   CDf =  0.00724    CDp =  0.01014

 Side 1  free  transition at x/c =  0.4490   58
 Side 2  free  transition at x/c =  0.6289   49

   3   rms: 0.8251E-01   max: -.7777E+00   C at   49  2   RLX: 0.643
       a =  5.000      CL =  1.5908
      Cm = -0.2427     CD =  0.01745   =>   CDf =  0.00746    CDp =  0.00999

 Side 1  free  transition at x/c =  0.4453   58
 Side 2  free  transition at x/c =  0.6564   50

   4   rms: 0.3524E-01   max: -.3625E+00   T at   50  2
       a =  5.000      CL =  1.6051
      Cm = -0.2427     CD =  0.01763   =>   CDf =  0.00732    CDp =  0.01031

 MRCHDU: Convergence failed at  54  side 2    Res =  0.1242E+01
 MRCHDU: Convergence failed at  55  side 2    Res =  0.2095E+01
 MRCHDU: Convergence failed at  56  side 2    Res =  0.3072E+01
 MRCHDU: Convergence failed at  57  side 2    Res =  0.4304E+01
 MRCHDU: Convergence failed at  58  side 2    Res =  0.6678E+01
 MRCHDU: Convergence failed at  59  side 2    Res =  0.7586E+01
 MRCHDU: Convergence failed at  60  side 2    Res =  0.7364E+01
 MRCHDU: Convergence failed at  61  side 2    Res =  0.6371E+01
 Side 1  free  transition at x/c =  0.4432   58
 Side 2  free  transition at x/c =  0.7151   54

   5   rms: 0.7168E-01   max: -.6331E+00   D at   60  2   RLX: 0.790
       a =  5.000      CL =  1.6029
      Cm = -0.2417     CD =  0.01740   =>   CDf =  0.00684    CDp =  0.01056

 Side 1  free  transition at x/c =  0.4432   58
 Side 2  free  transition at x/c =  0.7124   53

   6   rms: 0.1294E-01   max: 0.1224E+00   D at   62  2
       a =  5.000      CL =  1.6043
      Cm = -0.2425     CD =  0.01755   =>   CDf =  0.00712    CDp =  0.01043

 Side 1  free  transition at x/c =  0.4432   58
 Side 2  free  transition at x/c =  0.6991   53

   7   rms: 0.2833E-02   max: -.4007E-01   C at   53  2
       a =  5.000      CL =  1.6043
      Cm = -0.2425     CD =  0.01755   =>   CDf =  0.00714    CDp =  0.01042

 Side 1  free  transition at x/c =  0.4432   58
 Side 2  free  transition at x/c =  0.7005   53

   8   rms: 0.5812E-04   max: -.9212E-03   D at   56  2
       a =  5.000      CL =  1.6043
      Cm = -0.2425     CD =  0.01755   =>   CDf =  0.00713    CDp =  0.01042

 Point added to stored polar  1
 Point written to save file  000111M0.1.log                                  
 Dump file unspecified or not available
 Calculating wake trajectory ...
 Calculating source influence matrix ...

 Solving BL system ...

 Side 1  free  transition at x/c =  0.4432   58
 Side 2  free  transition at x/c =  0.7005   53

   1   rms: 0.2020E+00   max: -.1952E+01   C at   53  2   RLX: 0.256
       a =  6.000      CL =  1.6317
      Cm = -0.2421     CD =  0.01774   =>   CDf =  0.00714    CDp =  0.01059

 Side 1  free  transition at x/c =  0.4391   58
 Side 2  free  transition at x/c =  0.7326   55

   2   rms: 0.1603E+00   max: -.1538E+01   C at   55  2   RLX: 0.325
       a =  6.000      CL =  1.6586
      Cm = -0.2421     CD =  0.01797   =>   CDf =  0.00686    CDp =  0.01111

 Side 1  free  transition at x/c =  0.4354   59
 Side 2  free  transition at x/c =  0.7609   55

   3   rms: 0.9532E-01   max: -.7283E+00   T at   55  2   RLX: 0.687
       a =  6.000      CL =  1.6978
      Cm = -0.2420     CD =  0.01840   =>   CDf =  0.00704    CDp =  0.01136

 Side 1  free  transition at x/c =  0.4308   58
 Side 2  free  transition at x/c =  0.8334   60

   4   rms: 0.1110E+00   max: -.1738E+01   C at   60  2   RLX: 0.288
       a =  6.000      CL =  1.7003
      Cm = -0.2414     CD =  0.01841   =>   CDf =  0.00699    CDp =  0.01142

 Side 1  free  transition at x/c =  0.4302   58
 Side 2  free  transition at x/c =  0.8488   60

   5   rms: 0.4609E-01   max: -.5373E+00   C at   60  2   RLX: 0.931
       a =  6.000      CL =  1.7103
      Cm = -0.2409     CD =  0.01839   =>   CDf =  0.00693    CDp =  0.01147

 Side 1  free  transition at x/c =  0.4283   58
 Side 2 forced transition at x/c =  1.0001   71

   6   rms: 0.2624E-01   max: 0.4315E+00   D at   60  2
       a =  6.000      CL =  1.7043
      Cm = -0.2393     CD =  0.01828   =>   CDf =  0.00678    CDp =  0.01150

 Side 1  free  transition at x/c =  0.4284   58
 Side 2 forced transition at x/c =  1.0001   71

   7   rms: 0.2296E-02   max: 0.2637E-01   D at   62  2
       a =  6.000      CL =  1.7040
      Cm = -0.2392     CD =  0.01827   =>   CDf =  0.00678    CDp =  0.01149

 Side 1  free  transition at x/c =  0.4284   58
 Side 2 forced transition at x/c =  1.0001   71

   8   rms: 0.3776E-04   max: 0.3340E-03   D at   58  2
       a =  6.000      CL =  1.7040
      Cm = -0.2392     CD =  0.01827   =>   CDf =  0.00677    CDp =  0.01150

 Point added to stored polar  1
 Point written to save file  000111M0.1.log                                  
 Dump file unspecified or not available
 Calculating wake trajectory ...
 Calculating source influence matrix ...

 Solving BL system ...

 Side 1  free  transition at x/c =  0.4284   58
 Side 2 forced transition at x/c =  1.0001   71

   1   rms: 0.1641E+00   max: -.4061E+00   n at   69  2
       a =  7.000      CL =  1.8108
      Cm = -0.2380     CD =  0.01935   =>   CDf =  0.00636    CDp =  0.01299

 Side 1  free  transition at x/c =  0.4121   59
 Side 2 forced transition at x/c =  1.0001   69

   2   rms: 0.2719E-01   max: -.2782E+00   D at   60  1
       a =  7.000      CL =  1.8130
      Cm = -0.2384     CD =  0.01968   =>   CDf =  0.00684    CDp =  0.01284

 Side 1  free  transition at x/c =  0.4132   59
 Side 2 forced transition at x/c =  1.0001   69

   3   rms: 0.3359E-02   max: -.4261E-01   D at   59  1
       a =  7.000      CL =  1.8128
      Cm = -0.2383     CD =  0.01964   =>   CDf =  0.00683    CDp =  0.01281

 Side 1  free  transition at x/c =  0.4132   59
 Side 2 forced transition at x/c =  1.0001   69

   4   rms: 0.1657E-03   max: 0.1682E-02   D at   60  1
       a =  7.000      CL =  1.8128
      Cm = -0.2383     CD =  0.01964   =>   CDf =  0.00679    CDp =  0.01285

 Side 1  free  transition at x/c =  0.4131   59
 Side 2 forced transition at x/c =  1.0001   69

   5   rms: 0.4107E-05   max: -.2587E-04   C at   69  2
       a =  7.000      CL =  1.8128
      Cm = -0.2383     CD =  0.01964   =>   CDf =  0.00679    CDp =  0.01285

 Point added to stored polar  1
 Point written to save file  000111M0.1.log                                  
 Dump file unspecified or not available
 Calculating wake trajectory ...
 Calculating source influence matrix ...

 Solving BL system ...

 Side 1  free  transition at x/c =  0.4131   59
 Side 2 forced transition at x/c =  1.0001   69

   1   rms: 0.1469E+00   max: -.2065E+00   n at   60  2
       a =  8.000      CL =  1.9107
      Cm = -0.2353     CD =  0.02073   =>   CDf =  0.00655    CDp =  0.01419

 Side 1  free  transition at x/c =  0.3861   59
 Side 2 forced transition at x/c =  1.0001   68

   2   rms: 0.5461E-01   max: -.5105E+00   D at   60  1   RLX: 0.979
       a =  8.000      CL =  1.9116
      Cm = -0.2356     CD =  0.02103   =>   CDf =  0.00674    CDp =  0.01429

 Side 1  free  transition at x/c =  0.3935   59
 Side 2 forced transition at x/c =  1.0001   68

   3   rms: 0.5520E-02   max: 0.4805E-01   D at   61  1
       a =  8.000      CL =  1.9100
      Cm = -0.2351     CD =  0.02075   =>   CDf =  0.00661    CDp =  0.01414

 Side 1  free  transition at x/c =  0.3928   59
 Side 2 forced transition at x/c =  1.0001   68

   4   rms: 0.8611E-04   max: -.5738E-03   D at   61  1
       a =  8.000      CL =  1.9099
      Cm = -0.2351     CD =  0.02076   =>   CDf =  0.00660    CDp =  0.01415

 Point added to stored polar  1
 Point written to save file  000111M0.1.log                                  
 Dump file unspecified or not available
 Calculating wake trajectory ...
 Calculating source influence matrix ...

 Solving BL system ...

 Side 1  free  transition at x/c =  0.3928   59
 Side 2 forced transition at x/c =  1.0001   68

   1   rms: 0.1432E+00   max: 0.7106E+00   T at   59  1   RLX: 0.866
       a =  9.000      CL =  1.9790
      Cm = -0.2293     CD =  0.02136   =>   CDf =  0.00633    CDp =  0.01503

 Side 1  free  transition at x/c =  0.3647   59
 Side 2 forced transition at x/c =  1.0001   67

   2   rms: 0.4886E-01   max: -.4518E+00   D at   59  1
       a =  9.000      CL =  1.9909
      Cm = -0.2287     CD =  0.02174   =>   CDf =  0.00655    CDp =  0.01519

 Side 1  free  transition at x/c =  0.3668   59
 Side 2 forced transition at x/c =  1.0001   67

   3   rms: 0.6056E-02   max: 0.5113E-01   C at   59  1
       a =  9.000      CL =  1.9928
      Cm = -0.2291     CD =  0.02184   =>   CDf =  0.00637    CDp =  0.01548

 Side 1  free  transition at x/c =  0.3653   59
 Side 2 forced transition at x/c =  1.0001   67

   4   rms: 0.4016E-03   max: -.4912E-02   D at   60  1
       a =  9.000      CL =  1.9929
      Cm = -0.2291     CD =  0.02185   =>   CDf =  0.00642    CDp =  0.01543

 Side 1  free  transition at x/c =  0.3652   59
 Side 2 forced transition at x/c =  1.0001   67

   5   rms: 0.7366E-05   max: -.4302E-04   D at   71  2
       a =  9.000      CL =  1.9929
      Cm = -0.2291     CD =  0.02185   =>   CDf =  0.00643    CDp =  0.01543

 Point added to stored polar  1
 Point written to save file  000111M0.1.log                                  
 Dump file unspecified or not available
 Calculating wake trajectory ...
 Calculating source influence matrix ...

 Solving BL system ...

 Side 1  free  transition at x/c =  0.3652   59
 Side 2 forced transition at x/c =  1.0001   67

   1   rms: 0.1425E+00   max: -.5883E+00   D at   60  1   RLX: 0.850
       a = 10.000      CL =  2.0607
      Cm = -0.2238     CD =  0.02322   =>   CDf =  0.00613    CDp =  0.01709

 Side 1  free  transition at x/c =  0.3462   59
 Side 2 forced transition at x/c =  1.0001   66

   2   rms: 0.4049E-01   max: -.3982E+00   D at   59  1
       a = 10.000      CL =  2.0594
      Cm = -0.2202     CD =  0.02327   =>   CDf =  0.00621    CDp =  0.01707

 Side 1  free  transition at x/c =  0.3428   58
 Side 2 forced transition at x/c =  1.0001   66

   3   rms: 0.9141E-02   max: -.5085E-01   D at   70  2
       a = 10.000      CL =  2.0648
      Cm = -0.2215     CD =  0.02363   =>   CDf =  0.00619    CDp =  0.01744

 Side 1  free  transition at x/c =  0.3401   58
 Side 2 forced transition at x/c =  1.0001   66

   4   rms: 0.9647E-03   max: 0.5132E-02   D at   77  2
       a = 10.000      CL =  2.0642
      Cm = -0.2214     CD =  0.02365   =>   CDf =  0.00618    CDp =  0.01746

 Side 1  free  transition at x/c =  0.3403   58
 Side 2 forced transition at x/c =  1.0001   66

   5   rms: 0.1165E-04   max: -.6450E-04   D at   77  2
       a = 10.000      CL =  2.0642
      Cm = -0.2214     CD =  0.02365   =>   CDf =  0.00618    CDp =  0.01746

 Point added to stored polar  1
 Point written to save file  000111M0.1.log                                  
 Dump file unspecified or not available
 Calculating wake trajectory ...
 Calculating source influence matrix ...

 Solving BL system ...

 Side 1  free  transition at x/c =  0.3403   58
 Side 2 forced transition at x/c =  1.0001   66

   1   rms: 0.1283E+00   max: 0.4540E+00   T at   58  1
       a = 11.000      CL =  2.1264
      Cm = -0.2120     CD =  0.02552   =>   CDf =  0.00586    CDp =  0.01966

 Side 1  free  transition at x/c =  0.3018   57
 Side 2 forced transition at x/c =  1.0001   65

   2   rms: 0.2917E-01   max: 0.3772E+00   D at   58  1
       a = 11.000      CL =  2.1125
      Cm = -0.2101     CD =  0.02632   =>   CDf =  0.00613    CDp =  0.02018

 Side 1  free  transition at x/c =  0.3113   57
 Side 2 forced transition at x/c =  1.0001   65

   3   rms: 0.3147E-02   max: 0.2061E-01   D at   59  1
       a = 11.000      CL =  2.1143
      Cm = -0.2104     CD =  0.02629   =>   CDf =  0.00595    CDp =  0.02034

 Side 1  free  transition at x/c =  0.3096   57
 Side 2 forced transition at x/c =  1.0001   65

   4   rms: 0.2236E-03   max: -.1273E-02   C at   57  1
       a = 11.000      CL =  2.1141
      Cm = -0.2104     CD =  0.02630   =>   CDf =  0.00594    CDp =  0.02036

 Side 1  free  transition at x/c =  0.3097   57
 Side 2 forced transition at x/c =  1.0001   65

   5   rms: 0.3809E-05   max: -.2097E-04   D at   78  2
       a = 11.000      CL =  2.1141
      Cm = -0.2104     CD =  0.02630   =>   CDf =  0.00594    CDp =  0.02036

 Point added to stored polar  1
 Point written to save file  000111M0.1.log                                  
 Dump file unspecified or not available
 Calculating wake trajectory ...
 Calculating source influence matrix ...

 Solving BL system ...

 Side 1  free  transition at x/c =  0.3097   57
 Side 2 forced transition at x/c =  1.0001   65

   1   rms: 0.1304E+00   max: 0.4364E+00   T at   57  1
       a = 12.000      CL =  2.1727
      Cm = -0.2016     CD =  0.02890   =>   CDf =  0.00560    CDp =  0.02329

 Side 1  free  transition at x/c =  0.2471   54
 Side 2 forced transition at x/c =  1.0001   64

   2   rms: 0.5062E-01   max: -.3784E+00   D at   55  1
       a = 12.000      CL =  2.1277
      Cm = -0.1961     CD =  0.03192   =>   CDf =  0.00599    CDp =  0.02593

 Side 1  free  transition at x/c =  0.2746   56
 Side 2 forced transition at x/c =  1.0001   64

   3   rms: 0.2897E-01   max: -.1959E+00   C at   56  1
       a = 12.000      CL =  2.1528
      Cm = -0.1992     CD =  0.03025   =>   CDf =  0.00568    CDp =  0.02456

 Side 1  free  transition at x/c =  0.2545   55
 Side 2 forced transition at x/c =  1.0001   64

   4   rms: 0.1371E-01   max: -.1622E+00   C at   55  1
       a = 12.000      CL =  2.1425
      Cm = -0.1979     CD =  0.03095   =>   CDf =  0.00584    CDp =  0.02511

 Side 1  free  transition at x/c =  0.2607   55
 Side 2 forced transition at x/c =  1.0001   64

   5   rms: 0.1304E-02   max: -.2209E-01   C at   55  1
       a = 12.000      CL =  2.1418
      Cm = -0.1978     CD =  0.03100   =>   CDf =  0.00578    CDp =  0.02522

 Side 1  free  transition at x/c =  0.2612   55
 Side 2 forced transition at x/c =  1.0001   64

   6   rms: 0.2224E-04   max: -.7489E-04   D at   89  1
       a = 12.000      CL =  2.1418
      Cm = -0.1978     CD =  0.03100   =>   CDf =  0.00577    CDp =  0.02523

 Point added to stored polar  1
 Point written to save file  000111M0.1.log                                  
 Dump file unspecified or not available
 Calculating wake trajectory ...
 Calculating source influence matrix ...

 Solving BL system ...

 Side 1  free  transition at x/c =  0.2612   55
 Side 2 forced transition at x/c =  1.0001   64

   1   rms: 0.1393E+00   max: 0.7255E+00   C at   55  1   RLX: 0.942
       a = 13.000      CL =  2.1718
      Cm = -0.1880     CD =  0.03620   =>   CDf =  0.00542    CDp =  0.03078

 Side 1  free  transition at x/c =  0.1469   49
 Side 2 forced transition at x/c =  1.0001   63

   2   rms: 0.8651E-01   max: -.6990E+00   C at   49  1   RLX: 0.715
       a = 13.000      CL =  2.1243
      Cm = -0.1866     CD =  0.04186   =>   CDf =  0.00650    CDp =  0.03536

 Side 1  free  transition at x/c =  0.1603   49
 Side 2 forced transition at x/c =  1.0001   63

   3   rms: 0.4123E-01   max: -.5491E+00   C at   49  1   RLX: 0.911
       a = 13.000      CL =  2.0930
      Cm = -0.1825     CD =  0.04432   =>   CDf =  0.00622    CDp =  0.03810

 Side 1  free  transition at x/c =  0.1841   51
 Side 2 forced transition at x/c =  1.0001   63

   4   rms: 0.1360E-01   max: -.1588E+00   D at   51  1
       a = 13.000      CL =  2.1033
      Cm = -0.1825     CD =  0.04296   =>   CDf =  0.00589    CDp =  0.03707

 Side 1  free  transition at x/c =  0.1646   50
 Side 2 forced transition at x/c =  1.0001   63

   5   rms: 0.1828E-01   max: -.3620E+00   C at   50  1
       a = 13.000      CL =  2.0969
      Cm = -0.1822     CD =  0.04366   =>   CDf =  0.00609    CDp =  0.03756

 Side 1  free  transition at x/c =  0.1731   50
 Side 2 forced transition at x/c =  1.0001   63

   6   rms: 0.3287E-02   max: -.6987E-01   C at   50  1
       a = 13.000      CL =  2.0962
      Cm = -0.1821     CD =  0.04374   =>   CDf =  0.00599    CDp =  0.03775

 Side 1  free  transition at x/c =  0.1744   51
 Side 2 forced transition at x/c =  1.0001   63

   7   rms: 0.1680E-02   max: -.2980E-01   C at   51  1
       a = 13.000      CL =  2.0963
      Cm = -0.1821     CD =  0.04373   =>   CDf =  0.00598    CDp =  0.03774

 Side 1  free  transition at x/c =  0.1747   51
 Side 2 forced transition at x/c =  1.0001   63

   8   rms: 0.5788E-04   max: 0.9159E-03   C at   51  1
       a = 13.000      CL =  2.0963
      Cm = -0.1821     CD =  0.04373   =>   CDf =  0.00597    CDp =  0.03776

 Point added to stored polar  1
 Point written to save file  000111M0.1.log                                  
 Dump file unspecified or not available
 Calculating wake trajectory ...
 Calculating source influence matrix ...

 Solving BL system ...

 Side 1  free  transition at x/c =  0.1747   51
 Side 2 forced transition at x/c =  1.0001   63

   1   rms: 0.2703E+00   max: 0.2883E+01   C at   51  1   RLX: 0.500
       a = 14.000      CL =  2.0462
      Cm = -0.1759     CD =  0.05533   =>   CDf =  0.00599    CDp =  0.04934

 Side 1  free  transition at x/c =  0.1345   48
 Side 2 forced transition at x/c =  1.0001   63

   2   rms: 0.1507E+00   max: 0.1077E+01   C at   48  1
       a = 14.000      CL =  1.9921
      Cm = -0.1750     CD =  0.07096   =>   CDf =  0.00613    CDp =  0.06483

 Side 1  free  transition at x/c =  0.1099   46
 Side 2 forced transition at x/c =  1.0001   63

   3   rms: 0.3599E-01   max: 0.3084E+00   D at   78  1
       a = 14.000      CL =  1.9901
      Cm = -0.1765     CD =  0.07079   =>   CDf =  0.00606    CDp =  0.06474

 Side 1  free  transition at x/c =  0.1101   46
 Side 2 forced transition at x/c =  1.0001   63

   4   rms: 0.4288E-02   max: 0.4491E-01   D at   76  1
       a = 14.000      CL =  1.9891
      Cm = -0.1762     CD =  0.07017   =>   CDf =  0.00595    CDp =  0.06421

 Side 1  free  transition at x/c =  0.1104   46
 Side 2 forced transition at x/c =  1.0001   63

   5   rms: 0.1837E-03   max: -.1911E-02   C at   46  1
       a = 14.000      CL =  1.9890
      Cm = -0.1762     CD =  0.07013   =>   CDf =  0.00595    CDp =  0.06418

 Side 1  free  transition at x/c =  0.1104   46
 Side 2 forced transition at x/c =  1.0001   63

   6   rms: 0.8084E-05   max: 0.7538E-04   C at   46  1
       a = 14.000      CL =  1.9890
      Cm = -0.1762     CD =  0.07013   =>   CDf =  0.00594    CDp =  0.06418

 Point added to stored polar  1
 Point written to save file  000111M0.1.log                                  
 Dump file unspecified or not available
 Calculating wake trajectory ...
 Calculating source influence matrix ...

 Solving BL system ...

 Side 1  free  transition at x/c =  0.1104   46
 Side 2 forced transition at x/c =  1.0001   63

   1   rms: 0.2412E+00   max: 0.1822E+01   C at   46  1   RLX: 0.478
       a = 15.000      CL =  1.9394
      Cm = -0.1771     CD =  0.08671   =>   CDf =  0.00597    CDp =  0.08074

 Side 1  free  transition at x/c =  0.0963   44
 Side 2 forced transition at x/c =  1.0001   63

   2   rms: 0.9801E-01   max: 0.6004E+00   D at   73  1
       a = 15.000      CL =  1.9100
      Cm = -0.1771     CD =  0.09902   =>   CDf =  0.00587    CDp =  0.09315

 Side 1  free  transition at x/c =  0.0804   43
 Side 2 forced transition at x/c =  1.0001   63

   3   rms: 0.2935E-01   max: 0.2104E+00   D at   71  1
       a = 15.000      CL =  1.8946
      Cm = -0.1773     CD =  0.09920   =>   CDf =  0.00581    CDp =  0.09340

 Side 1  free  transition at x/c =  0.0841   43
 Side 2 forced transition at x/c =  1.0001   63

   4   rms: 0.3105EGot result {'DD': 0.01511, 'Dmin': 0.0152, 'LL': -1.2548}
Completed successfully in 1.70 seconds. [{'DD': 0.01511, 'Dmin': 0.0152, 'LL': -1.2548}]
-02   max: -.3335E-01   C at   43  1
       a = 15.000      CL =  1.8937
      Cm = -0.1771     CD =  0.09853   =>   CDf =  0.00568    CDp =  0.09285

 Side 1  free  transition at x/c =  0.0843   43
 Side 2 forced transition at x/c =  1.0001   63

   5   rms: 0.7958E-04   max: 0.8803E-03   D at   79  2
       a = 15.000      CL =  1.8937
      Cm = -0.1770     CD =  0.09850   =>   CDf =  0.00567    CDp =  0.09283

 Point added to stored polar  1
 Point written to save file  000111M0.1.log                                  
 Dump file unspecified or not available

.OPERva   c>  
 XFOIL   c>  
