Job launching after 0.29 seconds in submission.
Running python job.
Changed into dir /home/simonx/Documents/Udacity/Projects/capstone/PESM_NSGA2_CST_XFoil
Importing evaluationFunctionXFoil.py
Running evaluationFunctionXFoil.main()
0
1
2
0.04
resp: 
 ===================================================
  XFOIL Version 6.97
  Copyright (C) 2000   Mark Drela, Harold Youngren

  This software comes with ABSOLUTELY NO WARRANTY,
    subject to the GNU General Public License.

  Caveat computor
 ===================================================

 File  xfoil.def  not found

   QUIT    Exit program

  .OPER    Direct operating point(s)
  .MDES    Complex mapping design routine
  .QDES    Surface speed design routine
  .GDES    Geometry design routine

   SAVE f  Write airfoil to labeled coordinate file
   PSAV f  Write airfoil to plain coordinate file
   ISAV f  Write airfoil to ISES coordinate file
   MSAV f  Write airfoil to MSES coordinate file
   REVE    Reverse written-airfoil node ordering
   DELI i  Change written-airfoil file delimiters

   LOAD f  Read buffer airfoil from coordinate file
   NACA i  Set NACA 4,5-digit airfoil and buffer airfoil
   INTE    Set buffer airfoil by interpolating two airfoils
   NORM    Buffer airfoil normalization toggle
   HALF    Halve the number of points in buffer airfoil
   XYCM rr Change CM reference location, currently  0.25000 0.00000

   BEND    Display structural properties of current airfoil

   PCOP    Set current-airfoil panel nodes directly from buffer airfoil points
   PANE    Set current-airfoil panel nodes ( 160 ) based on curvature
  .PPAR    Show/change paneling

  .PLOP    Plotting options

   WDEF f  Write  current-settings file
   RDEF f  Reread current-settings file
   NAME s  Specify new airfoil name
   NINC    Increment name version number

   Z       Zoom    | (available in all menus)
   U       Unzoom  | 

 XFOIL   c>   ...............................................

  G raphics-enable flag:        T
  S ize of plot object          10.00"
  A spect ratio of plot object   0.5500
  P age dimensions              11.00 x  8.50"
  M argins from page edges       0.00",  0.00"
  F ont size (relative)          0.0150
  W indow/screen size fraction   0.8000
  B lowup input method:        Cursor    
  O rientation of plot:        Landscape 
  C olor PostScript output?     F

      Option, Value   (or <Return>)    c>   ...............................................

  G raphics-enable flag:        F
  S ize of plot object          10.00"
  A spect ratio of plot object   0.5500
  P age dimensions              11.00 x  8.50"
  M argins from page edges       0.00",  0.00"
  F ont size (relative)          0.0150
  W indow/screen size fraction   0.8000
  B lowup input method:        Cursor    
  O rientation of plot:        Landscape 
  C olor PostScript output?     F

      Option, Value   (or <Return>)    c>  
 XFOIL   c>  
 Labeled airfoil file.  Name:  000096                                          

 Number of input coordinate points: 200
 Clockwise ordering
 Max thickness =     0.182335  at x =   0.147
 Max camber    =     0.088955  at x =   0.624

  LE  x,y  =  -0.00000   0.00077  |   Chord =   0.99988
  TE  x,y  =   0.99988   0.00006  |

 Current airfoil nodes set from buffer airfoil nodes ( 200 )

 XFOIL   c>  
 You are working with the buffer airfoil

.GDES   c>  
  i       x        y      angle
   2   0.9990   0.0005   -0.036
   3   0.9978   0.0011    0.064
   4   0.9961   0.0019    0.047
   5   0.9938   0.0030    0.082
   6   0.9911   0.0043    0.094
   7   0.9880   0.0058    0.096
   8   0.9843   0.0076    0.136
   9   0.9801   0.0096    0.145
  10   0.9755   0.0118    0.170
  11   0.9704   0.0142    0.198
  12   0.9649   0.0168    0.205
  13   0.9589   0.0195    0.241
  14   0.9524   0.0225    0.273
  15   0.9455   0.0256    0.293
  16   0.9382   0.0289    0.316
  17   0.9304   0.0323    0.366
  18   0.9222   0.0358    0.381
  19   0.9135   0.0395    0.414
  20   0.9045   0.0432    0.453
  21   0.8951   0.0471    0.490
  22   0.8853   0.0509    0.513
  23   0.8751   0.0549    0.554
  24   0.8645   0.0588    0.583
  25   0.8536   0.0628    0.618
  26   0.8423   0.0667    0.652
  27   0.8307   0.0707    0.675
  28   0.8187   0.0745    0.704
  29   0.8065   0.0783    0.736
  30   0.7939   0.0821    0.757
  31   0.7810   0.0857    0.777
  32   0.7679   0.0892    0.791
  33   0.7545   0.0926    0.811
  34   0.7409   0.0959    0.814
  35   0.7270   0.0990    0.822
  36   0.7129   0.1019    0.823
  37   0.6986   0.1047    0.820
  38   0.6841   0.1073    0.812
  39   0.6694   0.1097    0.796
  40   0.6545   0.1119    0.780
  41   0.6395   0.1140    0.758
  42   0.6243   0.1158    0.733
  43   0.6091   0.1175    0.700
  44   0.5937   0.1190    0.665
  45   0.5782   0.1203    0.632
  46   0.5627   0.1215    0.591
  47   0.5471   0.1225    0.543
  48   0.5314   0.1233    0.505
  49   0.5157   0.1240    0.461
  50   0.5000   0.1246    0.412
  51   0.4843   0.1251    0.371
  52   0.4686   0.1255    0.323
  53   0.4529   0.1257    0.290
  54   0.4373   0.1260    0.240
  55   0.4218   0.1261    0.212
  56   0.4063   0.1262    0.181
  57   0.3909   0.1262    0.149
  58   0.3757   0.1262    0.133
  59   0.3605   0.1262    0.120
  60   0.3455   0.1261    0.103
  61   0.3306   0.1260    0.114
  62   0.3159   0.1259    0.117
  63   0.3014   0.1257    0.136
  64   0.2871   0.1255    0.166
  65   0.2730   0.1253    0.196
  66   0.2591   0.1250    0.250
  67   0.2455   0.1247    0.312
  68   0.2321   0.1243    0.378
  69   0.2190   0.1238    0.472
  70   0.2061   0.1233    0.559
  71   0.1935   0.1226    0.677
  72   0.1813   0.1218    0.795
  73   0.1693   0.1208    0.939
  74   0.1577   0.1197    1.093
  75   0.1464   0.1184    1.260
  76   0.1355   0.1169    1.433
  77   0.1249   0.1152    1.642
  78   0.1147   0.1132    1.846
  79   0.1049   0.1110    2.060
  80   0.0955   0.1085    2.294
  81   0.0865   0.1057    2.528
  82   0.0778   0.1026    2.760
  83   0.0696   0.0993    3.003
  84   0.0618   0.0956    3.223
  85   0.0545   0.0915    3.441
  86   0.0476   0.0872    3.630
  87   0.0411   0.0826    3.800
  88   0.0351   0.0776    3.926
  89   0.0296   0.0724    4.035
  90   0.0245   0.0668    4.097
  91   0.0199   0.0610    4.144
  92   0.0157   0.0549    4.153
  93   0.0120   0.0486    4.125
  94   0.0089   0.0421    4.110
  95   0.0062   0.0354    4.059
  96   0.0039   0.0285    4.019
  97   0.0022   0.0215    3.988
  98   0.0010   0.0144    3.946
  99   0.0002   0.0072    3.929
 100   0.0000   0.0000    4.929
 101   0.0002  -0.0048    5.900
 102   0.0010  -0.0095    5.828
 103   0.0022  -0.0142    5.737
 104   0.0039  -0.0188    5.575
 105   0.0062  -0.0234    5.413
 106   0.0089  -0.0278    5.232
 107   0.0120  -0.0321    5.005
 108   0.0157  -0.0362    4.796
 109   0.0199  -0.0401    4.580
 110   0.0245  -0.0439    4.352
 111   0.0296  -0.0474    4.134
 112   0.0351  -0.0507    3.921
 113   0.0411  -0.0537    3.715
 114   0.0476  -0.0564    3.511
 115   0.0545  -0.0588    3.318
 116   0.0618  -0.0609    3.127
 117   0.0696  -0.0627    2.946
 118   0.0778  -0.0641    2.774
 119   0.0865  -0.0652    2.600
 120   0.0955  -0.0659    2.445
 121   0.1049  -0.0663    2.289
 122   0.1147  -0.0663    2.127
 123   0.1249  -0.0659    1.983
 124   0.1355  -0.0651    1.841
 125   0.1464  -0.0639    1.710
 126   0.1577  -0.0623    1.564
 127   0.1693  -0.0604    1.442
 128   0.1813  -0.0581    1.310
 129   0.1935  -0.0555    1.188
 130   0.2061  -0.0525    1.069
 131   0.2190  -0.0492    0.948
 132   0.2321  -0.0456    0.839
 133   0.2455  -0.0417    0.725
 134   0.2591  -0.0376    0.612
 135   0.2730  -0.0332    0.507
 136   0.2871  -0.0286    0.402
 137   0.3014  -0.0238    0.297
 138   0.3159  -0.0189    0.198
 139   0.3306  -0.0139    0.098
 140   0.3455  -0.0088   -0.000
 141   0.3605  -0.0036   -0.098
 142   0.3757   0.0016   -0.194
 143   0.3909   0.0068   -0.283
 144   0.4063   0.0119   -0.374
 145   0.4218   0.0170   -0.463
 146   0.4373   0.0219   -0.555
 147   0.4529   0.0267   -0.631
 148   0.4686   0.0313   -0.715
 149   0.4843   0.0357   -0.791
 150   0.5000   0.0399   -0.865
 151   0.5157   0.0438   -0.939
 152   0.5314   0.0475   -0.999
 153   0.5471   0.0509   -1.061
 154   0.5627   0.0539   -1.114
 155   0.5782   0.0566   -1.160
 156   0.5937   0.0590   -1.203
 157   0.6091   0.0611   -1.237
 158   0.6243   0.0628   -1.263
 159   0.6395   0.0641   -1.277
 160   0.6545   0.0651   -1.295
 161   0.6694   0.0658   -1.292
 162   0.6841   0.0661   -1.295
 163   0.6986   0.0660   -1.274
 164   0.7129   0.0657   -1.266
 165   0.7270   0.0651   -1.231
 166   0.7409   0.0641   -1.206
 167   0.7545   0.0629   -1.171
 168   0.7679   0.0615   -1.122
 169   0.7810   0.0598   -1.080
 170   0.7939   0.0579   -1.037
 171   0.8065   0.0558   -0.977
 172   0.8187   0.0535   -0.929
 173   0.8307   0.0511   -0.872
 174   0.8423   0.0486   -0.820
 175   0.8536   0.0460   -0.757
 176   0.8645   0.0433   -0.710
 177   0.8751   0.0405   -0.652
 178   0.8853   0.0378   -0.602
 179   0.8951   0.0350   -0.547
 180   0.9045   0.0322   -0.493
 181   0.9135   0.0295   -0.452
 182   0.9222   0.0268   -0.405
 183   0.9304   0.0242   -0.363
 184   0.9382   0.0216   -0.322
 185   0.9455   0.0192   -0.282
 186   0.9524   0.0169   -0.256
 187   0.9589   0.0147   -0.203
 188   0.9649   0.0126   -0.203
 189   0.9704   0.0106   -0.146
 190   0.9755   0.0088   -0.151
 191   0.9801   0.0072   -0.109
 192   0.9843   0.0057   -0.093
 193   0.9880   0.0044   -0.079
 194   0.9911   0.0032   -0.073
 195   0.9938   0.0022   -0.044
 196   0.9961   0.0014   -0.032
 197   0.9978   0.0008   -0.061
 198   0.9990   0.0004   -0.008
 199   0.9998   0.0001    0.094

 Maximum panel corner angle =  5.900   at  i,x,y  = 101   0.0002  -0.0048

 Enter corner angle criterion for refinement (deg):   2.950
 Enter type of spline parameter (1=uniform, 2=arclength):   1
 Enter refinement x limits:  -0.10000   1.10000
 Number of points added:           68
 Max thickness =     0.182318  at x =   0.146
 Max camber    =     0.089246  at x =   0.624

 Maximum panel corner angle =  2.774   at  i,x,y  = 186   0.0778  -0.0641

.GDES   c>  
 Buffer airfoil is not identical to current airfoil

 XFOIL   c>  
 Blunt trailing edge.  Gap =  0.00028

 Paneling parameters used...
   Number of panel nodes       160
   Panel bunching parameter    1.000
   TE/LE panel density ratio   0.150
   Refined-area/LE panel density ratio    0.200
   Top    side refined area x/c limits  1.000 1.000
   Bottom side refined area x/c limits  1.000 1.000

 XFOIL   c>  
Enter output filename   s>  
 XFOIL   c>  
.OPERi   c>   Current iteration limit:          20

Enter new iteration limit   i>  
Enter new iteration limit   i>  
Enter new iteration limit   i>  
.OPERi   c>  
 M  =    0.0000
 Re =  0.3000E+06

.OPERv   c>  
 Sonic Cp =   -420.65      Sonic Q/Qinf =    22.825


.OPERv   c>  
 Polar  1 newly created for accumulation
 Airfoil archived with polar: 000096                                          

Enter  polar save filename  OR  <return> for no file   s>  
 New polar save file available

Enter  polar dump filename  OR  <return> for no file   s>  
 Polar dump file will NOT be written

 Polar accumulation enabled

.OPERva   c>   Calculating unit vorticity distributions ...
 Calculating wake trajectory ...
 Calculating source influence matrix ...

 Solving BL system ...

 Initializing BL ...
    side            1  ...
 MRCHUE: Inverse mode at  41     Hk =   4.407
 MRCHUE: Inverse mode at  42     Hk =   5.257
 MRCHUE: Inverse mode at  43     Hk =   6.132
 MRCHUE: Inverse mode at  44     Hk =   7.045
 MRCHUE: Inverse mode at  45     Hk =   8.010
 MRCHUE: Inverse mode at  46     Hk =   9.038
 MRCHUE: Inverse mode at  47     Hk =   7.320
 MRCHUE: Inverse mode at  48     Hk =   3.031
 MRCHUE: Inverse mode at  81     Hk =   2.500
 MRCHUE: Inverse mode at  82     Hk =   2.500
 MRCHUE: Inverse mode at  83     Hk =   2.500
 MRCHUE: Convergence failed at  84  side 1    Res =  0.4665E+01
    side            2  ...
 MRCHUE: Inverse mode at  34     Hk =   3.972
 MRCHUE: Inverse mode at  35     Hk =   4.760
 MRCHUE: Inverse mode at  36     Hk =   5.563
 MRCHUE: Inverse mode at  37     Hk =   6.393
 MRCHUE: Inverse mode at  38     Hk =   7.258
 MRCHUE: Inverse mode at  39     Hk =   8.168
 MRCHUE: Inverse mode at  40     Hk =   9.130
 MRCHUE: Inverse mode at  41     Hk =   8.245
 MRCHUE: Inverse mode at  42     Hk =   4.029
 MRCHUE: Inverse mode at  43     Hk =   2.500
 MRCHUE: Inverse mode at  44     Hk =   2.500
 MRCHUE: Inverse mode at  45     Hk =   2.500
 MRCHUE: Inverse mode at  46     Hk =   2.500
 MRCHUE: Inverse mode at  47     Hk =   2.500
 MRCHUE: Inverse mode at  48     Hk =   2.500
 MRCHUE: Inverse mode at  49     Hk =   2.500
 MRCHUE: Inverse mode at  50     Hk =   2.500
 MRCHUE: Inverse mode at  51     Hk =   2.500
 MRCHUE: Inverse mode at  52     Hk =   2.500
 MRCHUE: Inverse mode at  53     Hk =   2.500
 MRCHUE: Inverse mode at  54     Hk =   2.500
 MRCHUE: Inverse mode at  55     Hk =   2.500
 MRCHUE: Inverse mode at  56     Hk =   2.500
 MRCHUE: Inverse mode at  57     Hk =   2.500
 MRCHUE: Inverse mode at  58     Hk =   2.500
 MRCHUE: Inverse mode at  59     Hk =   2.500
 MRCHUE: Inverse mode at  60     Hk =   2.500
 MRCHUE: Inverse mode at  61     Hk =   2.500
 MRCHUE: Inverse mode at  62     Hk =   2.500
 MRCHUE: Inverse mode at  63     Hk =   2.500
 MRCHUE: Inverse mode at  64     Hk =   2.500

 MRCHDU: Convergence failed at  84  side 1    Res =  0.3987E+01
 Side 1  free  transition at x/c =  0.1916   47
 Side 2  free  transition at x/c =  0.2912   41

   1   rms: 0.3490E+00   max: 0.2344E+01   T at   41  2   RLX: 0.445
       a =  2.000      CL =  1.3704
      Cm = -0.2780     CD =  0.01835   =>   CDf =  0.00933    CDp =  0.00902

 Side 1  free  transition at x/c =  0.1982   47
 Side 2  free  transition at x/c =  0.2696   41

   2   rms: 0.2413E+00   max: 0.1918E+01   T at   41  2   RLX: 0.494
       a =  2.000      CL =  1.2277
      Cm = -0.2476     CD =  0.02182   =>   CDf =  0.00871    CDp =  0.01311

 Side 1  free  transition at x/c =  0.2124   47
 Side 2  free  transition at x/c =  0.2540   40

   3   rms: 0.1784E+00   max: 0.6301E+00   T at   40  2   RLX: 0.813
       a =  2.000      CL =  1.1376
      Cm = -0.2325     CD =  0.02464   =>   CDf =  0.00813    CDp =  0.01651

 Side 1  free  transition at x/c =  0.2147   46
 Side 2  free  transition at x/c =  0.2468   41

   4   rms: 0.5523E+00   max: -.2618E+01   T at   41  2   RLX: 0.191
       a =  2.000      CL =  1.1824
      Cm = -0.2438     CD =  0.02555   =>   CDf =  0.00800    CDp =  0.01755

 Side 1  free  transition at x/c =  0.2131   46
 Side 2  free  transition at x/c =  0.2583   42

   5   rms: 0.1567E+00   max: -.6435E+00   D at   68  2   RLX: 0.777
       a =  2.000      CL =  1.1779
      Cm = -0.2437     CD =  0.02472   =>   CDf =  0.00834    CDp =  0.01638

 Side 1  free  transition at x/c =  0.2130   46
 Side 2  free  transition at x/c =  0.2598   42

   6   rms: 0.5240E-01   max: -.2545E+00   D at   67  2
       a =  2.000      CL =  1.1603
      Cm = -0.2396     CD =  0.02479   =>   CDf =  0.00860    CDp =  0.01620

 Side 1  free  transition at x/c =  0.2136   46
 Side 2  free  transition at x/c =  0.2571   42

   7   rms: 0.7615E-02   max: 0.7945E-01   T at   42  2
       a =  2.000      CL =  1.1548
      Cm = -0.2382     CD =  0.02502   =>   CDf =  0.00873    CDp =  0.01630

 Side 1  free  transition at x/c =  0.2138   46
 Side 2  free  transition at x/c =  0.2558   42

   8   rms: 0.1166E-01   max: 0.7171E-01   T at   42  2
       a =  2.000      CL =  1.1510
      Cm = -0.2373     CD =  0.02521   =>   CDf =  0.00875    CDp =  0.01646

 Side 1  free  transition at x/c =  0.2139   46
 Side 2  free  transition at x/c =  0.2550   41

   9   rms: 0.3759E-02   max: -.6599E-01   D at   41  2
       a =  2.000      CL =  1.1533
      Cm = -0.2378     CD =  0.02508   =>   CDf =  0.00873    CDp =  0.01635

 Side 1  free  transition at x/c =  0.2138   46
 Side 2  free  transition at x/c =  0.2554   41

  10   rms: 0.2070E-03   max: -.1154E-02   T at   41  2
       a =  2.000      CL =  1.1534
      Cm = -0.2378     CD =  0.02508   =>   CDf =  0.00874    CDp =  0.01634

 Side 1  free  transition at x/c =  0.2138   46
 Side 2  free  transition at x/c =  0.2555   41

  11   rms: 0.1390E-05   max: 0.1024E-04   T at   41  2
       a =  2.000      CL =  1.1534
      Cm = -0.2378     CD =  0.02508   =>   CDf =  0.00874    CDp =  0.01634

 Point added to stored polar  1
 Point written to save file  000096M0.04.log                                 
 Dump file unspecified or not available
 Calculating wake trajectory ...
 Calculating source influence matrix ...

 Solving BL system ...

 Side 1  free  transition at x/c =  0.2138   46
 Side 2  free  transition at x/c =  0.2555   41

   1   rms: 0.1479E+00   max: -.9494E+00   T at   41  2   RLX: 0.527
       a =  3.000      CL =  1.2121
      Cm = -0.2372     CD =  0.02567   =>   CDf =  0.00860    CDp =  0.01706

 Side 1  free  transition at x/c =  0.2068   47
 Side 2  free  transition at x/c =  0.2673   41

   2   rms: 0.1121E+00   max: 0.1097E+01   D at   41  2
       a =  3.000      CL =  1.2566
      Cm = -0.2349     CD =  0.02641   =>   CDf =  0.00879    CDp =  0.01762

 Side 1  free  transition at x/c =  0.2000   47
 Side 2  free  transition at x/c =  0.2710   41

   3   rms: 0.2478E-01   max: 0.1590E+00   D at   41  2
       a =  3.000      CL =  1.2537
      Cm = -0.2344     CD =  0.02659   =>   CDf =  0.00880    CDp =  0.01779

 Side 1  free  transition at x/c =  0.2004   47
 Side 2  free  transition at x/c =  0.2698   41

   4   rms: 0.1193E-02   max: 0.1061E-01   D at   42  2
       a =  3.000      CL =  1.2542
      Cm = -0.2345     CD =  0.02656   =>   CDf =  0.00874    CDp =  0.01782

 Side 1  free  transition at x/c =  0.2003   47
 Side 2  free  transition at x/c =  0.2697   41

   5   rms: 0.2517E-04   max: 0.2014E-03   D at   42  2
       a =  3.000      CL =  1.2541
      Cm = -0.2345     CD =  0.02656   =>   CDf =  0.00874    CDp =  0.01782

 Point added to stored polar  1
 Point written to save file  000096M0.04.log                                 
 Dump file unspecified or not available
 Calculating wake trajectory ...
 Calculating source influence matrix ...

 Solving BL system ...

 Side 1  free  transition at x/c =  0.2003   47
 Side 2  free  transition at x/c =  0.2697   41

   1   rms: 0.1437E+00   max: -.6869E+00   T at   41  2   RLX: 0.728
       a =  4.000      CL =  1.3325
      Cm = -0.2332     CD =  0.02813   =>   CDf =  0.00858    CDp =  0.01956

 MRCHDU: Convergence failed at  48  side 1    Res =  0.3697E+01
 MRCHDU: Convergence failed at  49  side 1    Res =  0.3725E+01
 MRCHDU: Convergence failed at  50  side 1    Res =  0.2027E+02
 MRCHDU: Convergence failed at  51  side 1    Res =  0.1209E+02
 MRCHDU: Convergence failed at  52  side 1    Res =  0.6348E+01
 MRCHDU: Convergence failed at  53  side 1    Res =  0.5131E+01
 MRCHDU: Convergence failed at  54  side 1    Res =  0.5113E+01
 MRCHDU: Convergence failed at  55  side 1    Res =  0.5981E+01
 MRCHDU: Convergence failed at  56  side 1    Res =  0.7682E+01
 MRCHDU: Convergence failed at  57  side 1    Res =  0.1171E+02
 MRCHDU: Convergence failed at  58  side 1    Res =  0.2729E+02
 MRCHDU: Convergence failed at  59  side 1    Res =  0.1118E+03
 MRCHDU: Convergence failed at  60  side 1    Res =  0.1781E+02
 MRCHDU: Convergence failed at  61  side 1    Res =  0.9599E+01
 MRCHDU: Convergence failed at  62  side 1    Res =  0.6741E+01
 MRCHDU: Convergence failed at  63  side 1    Res =  0.5635E+01
 MRCHDU: Convergence failed at  64  side 1    Res =  0.5012E+01
 MRCHDU: Convergence failed at  65  side 1    Res =  0.4667E+01
 MRCHDU: Convergence failed at  66  side 1    Res =  0.4411E+01
 MRCHDU: Convergence failed at  67  side 1    Res =  0.4425E+01
 MRCHDU: Convergence failed at  68  side 1    Res =  0.4357E+01
 MRCHDU: Convergence failed at  69  side 1    Res =  0.4291E+01
 MRCHDU: Convergence failed at  70  side 1    Res =  0.2925E+02
 MRCHDU: Convergence failed at  71  side 1    Res =  0.5106E+02
 MRCHDU: Convergence failed at  72  side 1    Res =  0.1598E+02
 MRCHDU: Convergence failed at  73  side 1    Res =  0.2245E+02
 MRCHDU: Convergence failed at  74  side 1    Res =  0.1986E+02
 MRCHDU: Convergence failed at  75  side 1    Res =  0.3136E+02
 MRCHDU: Convergence failed at  76  side 1    Res =  0.4394E+02
 MRCHDU: Convergence failed at  77  side 1    Res =  0.2391E+02
 MRCHDU: Convergence failed at  78  side 1    Res =  0.5406E+02
 MRCHDU: Convergence failed at  79  side 1    Res =  0.1767E+02
 MRCHDU: Convergence failed at  80  side 1    Res =  0.1734E+02
 MRCHDU: Convergence failed at  81  side 1    Res =  0.1074E+03
 MRCHDU: Convergence failed at  82  side 1    Res =  0.6391E+02
 MRCHDU: Convergence failed at  83  side 1    Res =  0.1863E+03
 MRCHDU: Convergence failed at  84  side 1    Res =  0.3261E+03
 Side 1  free  transition at x/c =  0.1924   47
 Side 2  free  transition at x/c =  0.2827   41

   2   rms: 0.9236E+00   max: 0.4634E+01   D at   84  1   RLX: 0.324
       a =  4.000      CL =  1.8582
      Cm = -0.4640     CD =  0.01304   =>   CDf =  0.00372    CDp =  0.00931

 MRCHDU: Convergence failed at  50  side 1    Res =  0.6062E-01
 MRCHDU: Convergence failed at  56  side 1    Res =  0.1199E+00
 MRCHDU: Convergence failed at  57  side 1    Res =  0.1041E+00
 MRCHDU: Convergence failed at  58  side 1    Res =  0.8207E-01
 MRCHDU: Convergence failed at  83  side 2    Res =  0.4592E+01
 MRCHDU: Convergence failed at  84  side 2    Res =  0.2120E+01
 MRCHDU: Convergence failed at  85  side 2    Res =  0.3525E+01
 MRCHDU: Convergence failed at  86  side 2    Res =  0.7451E+02
 MRCHDU: Convergence failed at  87  side 2    Res =  0.8762E+01
 MRCHDU: Convergence failed at  88  side 2    Res =  0.3684E+01
 Side 1  free  transition at x/c =  0.1825   47
 Side 2  free  transition at x/c =  0.2820   41

   3   rms: 0.2833E+00   max: -.1239E+01   D at   58  1   RLX: 0.404
       a =  4.000      CL =  1.3871
      Cm = -0.2782     CD =  0.05050   =>   CDf =  0.00585    CDp =  0.04465

 MRCHDU: Convergence failed at  58  side 1    Res =  0.2024E+00
 MRCHDU: Convergence failed at  59  side 1    Res =  0.2945E+00
 MRCHDU: Convergence failed at  64  side 1    Res =  0.1197E+02
 MRCHDU: Convergence failed at  65  side 1    Res =  0.1608E+01
 MRCHDU: Convergence failed at  66  side 1    Res =  0.7024E+00
 Side 1  free  transition at x/c =  0.1869   47
 Side 2  free  transition at x/c =  0.2816   41

   4   rms: 0.5349E+00   max: -.3759E+01   D at   60  1   RLX: 0.133
       a =  4.000      CL =  1.2591
      Cm = -0.2379     CD =  0.04950   =>   CDf =  0.00654    CDp =  0.04296

 MRCHDU: Convergence failed at  60  side 1    Res =  0.1342E+00
 MRCHDU: Convergence failed at  61  side 1    Res =  0.9307E-01
 Side 1  free  transition at x/c =  0.1915   47
 Side 2  free  transition at x/c =  0.2806   41

   5   rms: 0.2632E+01   max: 0.1936E+02   D at   61  1   RLX: 0.076
       a =  4.000      CL =  1.2941
      Cm = -0.2399     CD =  0.05229   =>   CDf =  0.00665    CDp =  0.04564

 Side 1  free  transition at x/c =  0.1812   46
 Side 2  free  transition at x/c =  0.2827   41

   6   rms: 0.7048E+00   max: 0.6223E+01   T at   46  1   RLX: 0.090
       a =  4.000      CL =  1.2884
      Cm = -0.2413     CD =  0.05102   =>   CDf =  0.00523    CDp =  0.04579

 Side 1  free  transition at x/c =  0.1743   46
 Side 2  free  transition at x/c =  0.2830   41

   7   rms: 0.4058E+00   max: -.1998E+01   D at   66  1   RLX: 0.250
       a =  4.000      CL =  1.3104
      Cm = -0.2335     CD =  0.04794   =>   CDf =  0.00466    CDp =  0.04328

 Side 1  free  transition at x/c =  0.1785   46
 Side 2  free  transition at x/c =  0.2849   41

   8   rms: 0.6069E+00   max: -.2634E+01   D at   61  1   RLX: 0.190
       a =  4.000      CL =  1.3319
      Cm = -0.2238     CD =  0.04293   =>   CDf =  0.00511    CDp =  0.03781

 MRCHDU: Convergence failed at  68  side 1    Res =  0.2123E+00
 MRCHDU: Convergence failed at  69  side 1    Res =  0.1063E+00
 MRCHDU: Convergence failed at  70  side 1    Res =  0.3717E+00
 Side 1  free  transition at x/c =  0.1850   48
 Side 2  free  transition at x/c =  0.2880   40

   9   rms: 0.1247E+01   max: -.6291E+01   D at   57  1   RLX: 0.079
       a =  4.000      CL =  1.3021
      Cm = -0.2344     CD =  0.04221   =>   CDf =  0.00724    CDp =  0.03497

 Side 1  free  transition at x/c =  0.1900   47
 Side 2  free  transition at x/c =  0.2819   41

  10   rms: 0.7864E+00   max: -.6245E+01   D at   56  1   RLX: 0.080
       a =  4.000      CL =  1.2904
      Cm = -0.2353     CD =  0.04254   =>   CDf =  0.00743    CDp =  0.03511

 MRCHDU: Convergence failed at  53  side 1    Res =  0.5488E+00
 Side 1  free  transition at x/c =  0.1934   47
 Side 2  free  transition at x/c =  0.2810   41

  11   rms: 0.2913E+00   max: -.1750E+01   D at   58  1   RLX: 0.286
       a =  4.000      CL =  1.3397
      Cm = -0.2320     CD =  0.03991   =>   CDf =  0.00881    CDp =  0.03110

 MRCHDU: Convergence failed at  57  side 1    Res =  0.3611E+01
 Side 1  free  transition at x/c =  0.1932   47
 Side 2  free  transition at x/c =  0.2828   41

  12   rms: 0.2213E+00   max: -.1305E+01   D at   59  1   RLX: 0.383
       a =  4.000      CL =  1.3616
      Cm = -0.2343     CD =  0.03527   =>   CDf =  0.00887    CDp =  0.02640

 Side 1  free  transition at x/c =  0.1931   47
 Side 2  free  transition at x/c =  0.2842   41

  13   rms: 0.1584E+00   max: -.9834E+00   D at   59  1   RLX: 0.508
       a =  4.000      CL =  1.3591
      Cm = -0.2328     CD =  0.03085   =>   CDf =  0.00873    CDp =  0.02212

 Side 1  free  transition at x/c =  0.1927   47
 Side 2  free  transition at x/c =  0.2848   41

  14   rms: 0.8984E-01   max: -.6014E+00   D at   49  1   RLX: 0.831
       a =  4.000      CL =  1.3582
      Cm = -0.2316     CD =  0.02813   =>   CDf =  0.00850    CDp =  0.01962

 Side 1  free  transition at x/c =  0.1904   48
 Side 2  free  transition at x/c =  0.2849   40

  15   rms: 0.2133E-01   max: -.2172E+00   D at   50  1
       a =  4.000      CL =  1.3569
      Cm = -0.2315     CD =  0.02814   =>   CDf =  0.00872    CDp =  0.01942

 Side 1  free  transition at x/c =  0.1887   48
 Side 2  free  transition at x/c =  0.2845   40

  16   rms: 0.1460E-02   max: -.2006E-01   D at   50  1
       a =  4.000      CL =  1.3566
      Cm = -0.2315     CD =  0.02821   =>   CDf =  0.00875    CDp =  0.01946

 Side 1  free  transition at x/c =  0.1886   48
 Side 2  free  transition at x/c =  0.2845   40

  17   rms: 0.2881E-04   max: -.1551E-03   D at   78  1
       a =  4.000      CL =  1.3567
      Cm = -0.2315     CD =  0.02821   =>   CDf =  0.00876    CDp =  0.01946

 Point added to stored polar  1
 Point written to save file  000096M0.04.log                                 
 Dump file unspecified or not available
 Calculating wake trajectory ...
 Calculating source influence matrix ...

 Solving BL system ...

 Side 1  free  transition at x/c =  0.1886   48
 Side 2  free  transition at x/c =  0.2845   40

   1   rms: 0.1257E+00   max: -.5504E+00   T at   40  2   RLX: 0.908
       a =  5.000      CL =  1.4424
      Cm = -0.2273     CD =  0.02990   =>   CDf =  0.00858    CDp =  0.02133

 Side 1  free  transition at x/c =  0.1800   48
 Side 2  free  transition at x/c =  0.2957   39

   2   rms: 0.9580E-01   max: -.4357E+00   D at   40  2
       a =  5.000      CL =  1.4566
      Cm = -0.2283     CD =  0.03039   =>   CDf =  0.00881    CDp =  0.02158

 Side 1  free  transition at x/c =  0.1785   48
 Side 2  free  transition at x/c =  0.3051   40

   3   rms: 0.8680E-01   max: 0.9077E+00   D at   40  2
       a =  5.000      CL =  1.4605
      Cm = -0.2290     CD =  0.03011   =>   CDf =  0.00901    CDp =  0.02110

 Side 1  free  transition at x/c =  0.1783   48
 Side 2  free  transition at x/c =  0.3025   40

   4   rms: 0.1682E-01   max: 0.1299E+00   D at   40  2
       a =  5.000      CL =  1.4596
      Cm = -0.2288     CD =  0.03012   =>   CDf =  0.00893    CDp =  0.02119

 Side 1  free  transition at x/c =  0.1783   48
 Side 2  free  transition at x/c =  0.3012   40

   5   rms: 0.5021E-03   max: -.2778E-02   D at   40  2
       a =  5.000      CL =  1.4596
      Cm = -0.2288     CD =  0.03012   =>   CDf =  0.00891    CDp =  0.02121

 Side 1  free  transition at x/c =  0.1783   48
 Side 2  free  transition at x/c =  0.3012   40

   6   rms: 0.2316E-05   max: -.1613E-04   D at   88  2
       a =  5.000      CL =  1.4596
      Cm = -0.2288     CD =  0.03012   =>   CDf =  0.00891    CDp =  0.02121

 Point added to stored polar  1
 Point written to save file  000096M0.04.log                                 
 Dump file unspecified or not available
 Calculating wake trajectory ...
 Calculating source influence matrix ...

 Solving BL system ...

 Side 1  free  transition at x/c =  0.1783   48
 Side 2  free  transition at x/c =  0.3012   40

   1   rms: 0.1254E+00   max: -.6044E+00   T at   40  2   RLX: 0.827
       a =  6.000      CL =  1.5344
      Cm = -0.2244     CD =  0.03167   =>   CDf =  0.00870    CDp =  0.02297

 Side 1  free  transition at x/c =  0.1710   49
 Side 2  free  transition at x/c =  0.3114   39

   2   rms: 0.9309E-01   max: -.3883E+00   D at   39  2
       a =  6.000      CL =  1.5556
      Cm = -0.2250     CD =  0.03207   =>   CDf =  0.00870    CDp =  0.02337

 Side 1  free  transition at x/c =  0.1697   49
 Side 2  free  transition at x/c =  0.3187   39

   3   rms: 0.5322E-02   max: 0.7004E-01   T at   39  2
       a =  6.000      CL =  1.5533
      Cm = -0.2244     CD =  0.03215   =>   CDf =  0.00895    CDp =  0.02321

 Side 1  free  transition at x/c =  0.1697   49
 Side 2  free  transition at x/c =  0.3177   39

   4   rms: 0.2875E-03   max: 0.2676E-02   T at   39  2
       a =  6.000      CL =  1.5533
      Cm = -0.2244     CD =  0.03216   =>   CDf =  0.00894    CDp =  0.02321

 Side 1  free  transition at x/c =  0.1697   49
 Side 2  free  transition at x/c =  0.3176   39

   5   rms: 0.2113E-05   max: 0.1109E-04   D at   88  2
       a =  6.000      CL =  1.5533
      Cm = -0.2244     CD =  0.03216   =>   CDf =  0.00894    CDp =  0.02322

 Point added to stored polar  1
 Point written to save file  000096M0.04.log                                 
 Dump file unspecified or not available
 Calculating wake trajectory ...
 Calculating source influence matrix ...

 Solving BL system ...

 Side 1  free  transition at x/c =  0.1697   49
 Side 2  free  transition at x/c =  0.3176   39

   1   rms: 0.1372E+00   max: -.8139E+00   T at   39  2   RLX: 0.614
       a =  7.000      CL =  1.6148
      Cm = -0.2225     CD =  0.03362   =>   CDf =  0.00871    CDp =  0.02491

 Side 1  free  transition at x/c =  0.1654   49
 Side 2  free  transition at x/c =  0.3320   39

   2   rms: 0.9289E-01   max: 0.9331E+00   D at   39  2
       a =  7.000      CL =  1.6453
      Cm = -0.2200     CD =  0.03444   =>   CDf =  0.00905    CDp =  0.02540

 Side 1  free  transition at x/c =  0.1620   49
 Side 2  free  transition at x/c =  0.3355   39

   3   rms: 0.1775E-01   max: 0.1207E+00   D at   39  2
       a =  7.000      CL =  1.6493
      Cm = -0.2205     CD =  0.03443   =>   CDf =  0.00885    CDp =  0.02559

 Side 1  free  transition at x/c =  0.1617   49
 Side 2  free  transition at x/c =  0.3349   39

   4   rms: 0.6398E-03   max: 0.5512E-02   D at   40  2
       a =  7.000      CL =  1.6492
      Cm = -0.2205     CD =  0.03444   =>   CDf =  0.00884    CDp =  0.02560

 Side 1  free  transition at x/c =  0.1617   49
 Side 2  free  transition at x/c =  0.3348   39

   5   rms: 0.2284E-05   max: 0.2367E-04   D at   83  1
       a =  7.000      CL =  1.6492
      Cm = -0.2205     CD =  0.03444   =>   CDf =  0.00884    CDp =  0.02560

 Point added to stored polar  1
 Point written to save file  000096M0.04.log                                 
 Dump file unspecified or not available
 Calculating wake trajectory ...
 Calculating source influence matrix ...

 Solving BL system ...

 Side 1  free  transition at x/c =  0.1617   49
 Side 2  free  transition at x/c =  0.3348   39

   1   rms: 0.1249E+00   max: -.6171E+00   T at   39  2   RLX: 0.810
       a =  8.000      CL =  1.7226
      Cm = -0.2168     CD =  0.03633   =>   CDf =  0.00859    CDp =  0.02774

 Side 1  free  transition at x/c =  0.1557   50
 Side 2  free  transition at x/c =  0.3500   39

   2   rms: 0.3342E-01   max: 0.2025E+00   D at   39  2
       a =  8.000      CL =  1.7385
      Cm = -0.2160     CD =  0.03691   =>   CDf =  0.00865    CDp =  0.02825

 Side 1  free  transition at x/c =  0.1550   51
 Side 2  free  transition at x/c =  0.3528   38

   3   rms: 0.4180E-02   max: 0.2716E-01   T at   51  1
       a =  8.000      CL =  1.7415
      Cm = -0.2164     CD =  0.03689   =>   CDf =  0.00890    CDp =  0.02799

 Side 1  free  transition at x/c =  0.1547   51
 Side 2  free  transition at x/c =  0.3529   38

   4   rms: 0.1012E-03   max: -.1025E-02   D at    4  1
       a =  8.000      CL =  1.7415
      Cm = -0.2164     CD =  0.03690   =>   CDf =  0.00892    CDp =  0.02798

 Side 1  free  transition at x/c =  0.1547   51
 Side 2  free  transition at x/c =  0.3529   38

   5   rms: 0.1203E-05   max: 0.1145E-04   D at    2  1
       a =  8.000      CL =  1.7415
      Cm = -0.2164     CD =  0.03690   =>   CDf =  0.00892    CDp =  0.02798

 Point added to stored polar  1
 Point written to save file  000096M0.04.log                                 
 Dump file unspecified or not available
 Calculating wake trajectory ...
 Calculating source influence matrix ...

 Solving BL system ...

 Side 1  free  transition at x/c =  0.1547   51
 Side 2  free  transition at x/c =  0.3529   38

   1   rms: 0.1548E+00   max: -.6633E+00   T at   38  2   RLX: 0.754
       a =  9.000      CL =  1.8370
      Cm = -0.2169     CD =  0.03908   =>   CDf =  0.00865    CDp =  0.03043

 MRCHDU: Convergence failed at  52  side 1    Res =  0.3548E+01
 MRCHDU: Convergence failed at  53  side 1    Res =  0.3233E+01
 MRCHDU: Convergence failed at  54  side 1    Res =  0.1735E+02
 MRCHDU: Convergence failed at  55  side 1    Res =  0.8681E+01
 MRCHDU: Convergence failed at  56  side 1    Res =  0.5500E+01
 MRCHDU: Convergence failed at  57  side 1    Res =  0.4997E+01
 MRCHDU: Convergence failed at  58  side 1    Res =  0.6317E+01
 MRCHDU: Convergence failed at  59  side 1    Res =  0.8884E+01
 MRCHDU: Convergence failed at  60  side 1    Res =  0.1154E+02
 MRCHDU: Convergence failed at  61  side 1    Res =  0.1159E+02
 MRCHDU: Convergence failed at  62  side 1    Res =  0.3810E+02
 MRCHDU: Convergence failed at  63  side 1    Res =  0.3499E+02
 MRCHDU: Convergence failed at  64  side 1    Res =  0.3452E+02
 MRCHDU: Convergence failed at  65  side 1    Res =  0.3477E+02
 MRCHDU: Convergence failed at  66  side 1    Res =  0.3514E+02
 MRCHDU: Convergence failed at  67  side 1    Res =  0.3498E+02
 MRCHDU: Convergence failed at  68  side 1    Res =  0.8805E+02
 MRCHDU: Convergence failed at  69  side 1    Res =  0.7574E+02
 MRCHDU: Convergence failed at  70  side 1    Res =  0.6501E+02
 MRCHDU: Convergence failed at  71  side 1    Res =  0.1189E+03
 MRCHDU: Convergence failed at  72  side 1    Res =  0.2892E+02
 MRCHDU: Convergence failed at  73  side 1    Res =  0.1300E+03
 MRCHDU: Convergence failed at  74  side 1    Res =  0.4404E+02
 MRCHDU: Convergence failed at  75  side 1    Res =  0.2830E+02
 MRCHDU: Convergence failed at  76  side 1    Res =  0.1876E+02
 MRCHDU: Convergence failed at  77  side 1    Res =  0.3114E+02
 MRCHDU: Convergence failed at  78  side 1    Res =  0.2779E+02
 MRCHDU: Convergence failed at  79  side 1    Res =  0.7197E+02
 MRCHDU: Convergence failed at  80  side 1    Res =  0.1178E+03
 MRCHDU: Convergence failed at  81  side 1    Res =  0.8150E+02
 MRCHDU: Convergence failed at  82  side 1    Res =  0.3360E+02
 MRCHDU: Convergence failed at  83  side 1    Res =  0.2368E+02
 MRCHDU: Convergence failed at  84  side 1    Res =  0.3583E+02
 MRCHDU: Convergence failed at  85  side 1    Res =  0.1257E+03
 MRCHDU: Convergence failed at  86  side 1    Res =  0.6011E+02
 MRCHDU: Convergence failed at  87  side 1    Res =  0.2500E+02
 MRCHDU: Convergence failed at  88  side 1    Res =  0.3402E+03
 MRCHDU: Convergence failed at  89  side 1    Res =  0.3865E+02
 MRCHDU: Convergence failed at  90  side 1    Res =  0.7431E+02
 MRCHDU: Convergence failed at  91  side 1    Res =  0.5776E+02
 MRCHDU: Convergence failed at  81  side 2    Res =  0.2847E+01
 MRCHDU: Convergence failed at  82  side 2    Res =  0.2899E+01
 Side 1  free  transition at x/c =  0.1496   51
 Side 2  free  transition at x/c =  0.3660   37

   2   rms: 0.1668E+01   max: 0.6830E+01   D at   75  2   RLX: 0.220
       a =  9.000      CL =  3.1179
      Cm = -0.7459     CD =  0.01176   =>   CDf =  0.00341    CDp =  0.00834

 MRCHDU: Convergence failed at  75  side 2    Res =  0.1240E+03
 MRCHDU: Convergence failed at  76  side 2    Res =  0.5285E+01
 MRCHDU: Convergence failed at  77  side 2    Res =  0.7674E+02
 MRCHDU: Convergence failed at  78  side 2    Res =  0.4862E+01
 MRCHDU: Convergence failed at  79  side 2    Res =  0.4321E+01
 MRCHDU: Convergence failed at  80  side 2    Res =  0.2909E+01
 MRCHDU: Convergence failed at  81  side 2    Res =  0.5223E+01
 MRCHDU: Convergence failed at  82  side 2    Res =  0.8179E+01
 MRCHDU: Convergence failed at  83  side 2    Res =  0.5998E+01
 MRCHDU: Convergence failed at  84  side 2    Res =  0.6791E+01
 MRCHDU: Convergence failed at  85  side 2    Res =  0.9162E+01
 MRCHDU: Convergence failed at  86  side 2    Res =  0.1207E+02
 MRCHDU: Convergence failed at  87  side 2    Res =  0.1971E+02
 MRCHDU: Convergence failed at  88  side 2    Res =  0.7478E+01
 MRCHDU: Convergence failed at  89  side 2    Res =  0.5179E+01
 MRCHDU: Convergence failed at  90  side 2    Res =  0.3735E+01
 MRCHDU: Convergence failed at  91  side 2    Res =  0.2815E+01
 MRCHDU: Convergence failed at  92  side 2    Res =  0.1872E+01
 MRCHDU: Convergence failed at  93  side 2    Res =  0.1382E+01
 Side 1  free  transition at x/c =  0.1411   50
 Side 2  free  transition at x/c =  0.3656   37

   3   rms: 0.6139E+00   max: 0.1514E+01   D at   93  2   RLX: 0.292
       a =  9.000      CL =  2.1830
      Cm = -0.4429     CD =  0.07031   =>   CDf =  0.00441    CDp =  0.06590

 Side 1  free  transition at x/c =  0.1362   49
 Side 2  free  transition at x/c =  0.3601   38

   4   rms: 0.4317E+00   max: 0.1339E+01   D at   90  2   RLX: 0.570
       a =  9.000      CL =  1.6672
      Cm = -0.2957     CD =  0.11291   =>   CDf =  0.00419    CDp =  0.10872

 Side 1  free  transition at x/c =  0.1414   47
 Side 2  free  transition at x/c =  0.3443   40

   5   rms: 0.2440E+00   max: -.1101E+01   T at   48  1   RLX: 0.454
       a =  9.000      CL =  1.5313
      Cm = -0.2422     CD =  0.11602   =>   CDf =  0.00394    CDp =  0.11209

 Side 1  free  transition at x/c =  0.1387   47
 Side 2  free  transition at x/c =  0.3435   40

   6   rms: 0.1382E+01   max: -.6160E+01   D at   62  1   RLX: 0.081
       a =  9.000      CL =  1.5992
      Cm = -0.2368     CD =  0.11549   =>   CDf =  0.00368    CDp =  0.11181

 Side 1  free  transition at x/c =  0.1458   49
 Side 2  free  transition at x/c =  0.3538   39

   7   rms: 0.4952E+00   max: -.2183E+01   D at   63  1   RLX: 0.229
       a =  9.000      CL =  1.5748
      Cm = -0.2037     CD =  0.08914   =>   CDf =  0.00464    CDp =  0.08450

 Side 1  free  transition at x/c =  0.1524   49
 Side 2  free  transition at x/c =  0.3579   39

   8   rms: 0.2878E+00   max: 0.1408E+01   T at   49  1   RLX: 0.382
       a =  9.000      CL =  1.6053
      Cm = -0.1993     CD =  0.07854   =>   CDf =  0.00515    CDp =  0.07339

 Side 1  free  transition at x/c =  0.1474   49
 Side 2  free  transition at x/c =  0.3603   39

   9   rms: 0.5566E+00   max: -.2148E+01   D at   58  1   RLX: 0.233
       a =  9.000      CL =  1.6769
      Cm = -0.1990     CD =  0.07541   =>   CDf =  0.00482    CDp =  0.07058

 Side 1  free  transition at x/c =  0.1525   50
 Side 2  free  transition at x/c =  0.3660   38

  10   rms: 0.2960E+00   max: 0.1577E+01   T at   50  1   RLX: 0.434
       a =  9.000      CL =  1.7419
      Cm = -0.2004     CD =  0.06441   =>   CDf =  0.00583    CDp =  0.05858

 Side 1  free  transition at x/c =  0.1449   50
 Side 2  free  transition at x/c =  0.3696   39

  11   rms: 0.4257E+00   max: -.1486E+01   D at   75  1   RLX: 0.337
       a =  9.000      CL =  1.8402
      Cm = -0.2139     CD =  0.06007   =>   CDf =  0.00547    CDp =  0.05460

 Side 1  free  transition at x/c =  0.1467   51
 Side 2  free  transition at x/c =  0.3789   38

  12   rms: 0.3715E+00   max: -.1310E+01   D at   79  1   RLX: 0.382
       a =  9.000      CL =  1.9244
      Cm = -0.2214     CD =  0.04853   =>   CDf =  0.00665    CDp =  0.04188

 Side 1  free  transition at x/c =  0.1478   51
 Side 2  free  transition at x/c =  0.3836   38

  13   rms: 0.2260E+00   max: -.9849E+00   D at   78  1   RLX: 0.508
       a =  9.000      CL =  1.9524
      Cm = -0.2280     CD =  0.03929   =>   CDf =  0.00763    CDp =  0.03166

 Side 1  free  transition at x/c =  0.1492   51
 Side 2  free  transition at x/c =  0.3838   38

  14   rms: 0.1284E+00   max: -.7496E+00   D at   54  1   RLX: 0.667
       a =  9.000      CL =  1.9061
      Cm = -0.2226     CD =  0.03649   =>   CDf =  0.00840    CDp =  0.02809

 Side 1  free  transition at x/c =  0.1503   51
 Side 2  free  transition at x/c =  0.3780   38

  15   rms: 0.6928E-01   max: 0.2721E+00   D at   88  1
       a =  9.000      CL =  1.8324
      Cm = -0.2119     CD =  0.03906   =>   CDf =  0.00871    CDp =  0.03035

 Side 1  free  transition at x/c =  0.1488   51
 Side 2  free  transition at x/c =  0.3722   38

  16   rms: 0.1187E-01   max: -.7628E-01   D at   38  2
       a =  9.000      CL =  1.8255
      Cm = -0.2112     CD =  0.03982   =>   CDf =  0.00873    CDp =  0.03110

 Side 1  free  transition at x/c =  0.1485   51
 Side 2  free  transition at x/c =  0.3721   38

  17   rms: 0.2536E-03   max: 0.2630E-02   D at   83  2
       a =  9.000      CL =  1.8254
      Cm = -0.2112     CD =  0.03981   =>   CDf =  0.00873    CDp =  0.03108

 Side 1  free  transition at x/c =  0.1485   51
 Side 2  free  transition at x/c =  0.3721   38

  18   rms: 0.2962E-05   max: 0.1252E-04   D at   85  2
       a =  9.000      CL =  1.8254
      Cm = -0.2112     CD =  0.03981   =>   CDf =  0.00873    CDp =  0.03108

 Point added to stored polar  1
 Point written to save file  000096M0.04.log                                 
 Dump file unspecified or not available
 Calculating wake trajectory ...
 Calculating source influence matrix ...

 Solving BL system ...

 Side 1  free  transition at x/c =  0.1485   51
 Side 2  free  transition at x/c =  0.3721   38

   1   rms: 0.1230E+00   max: -.7425E+00   T at   38  2   RLX: 0.673
       a = 10.000      CL =  1.8787
      Cm = -0.2073     CD =  0.04178   =>   CDf =  0.00845    CDp =  0.03333

 Side 1  free  transition at x/c =  0.1445   52
 Side 2  free  transition at x/c =  0.3843   37

   2   rms: 0.7173E-01   max: -.3236E+00   D at   37  2
       a = 10.000      CL =  1.9037
      Cm = -0.2054     CD =  0.04284   =>   CDf =  0.00859    CDp =  0.03425

 Side 1  free  transition at x/c =  0.1431   52
 Side 2  free  transition at x/c =  0.3921   37

   3   rms: 0.7801E-02   max: -.3567E-01   D at   41  2
       a = 10.000      CL =  1.9053
      Cm = -0.2056     CD =  0.04287   =>   CDf =  0.00872    CDp =  0.03415

 Side 1  free  transition at x/c =  0.1430   52
 Side 2  free  transition at x/c =  0.3919   37

   4   rms: 0.2010E-03   max: 0.1371E-02   D at   38  2
       a = 10.000      CL =  1.9054
      Cm = -0.2056     CD =  0.04288   =>   CDf =  0.00874    CDp =  0.03414

 Side 1  free  transition at x/c =  0.1430   52
 Side 2  free  transition at x/c =  0.3919   37

   5   rms: 0.5080E-05   max: 0.3883E-04   T at   37  2
       a = 10.000      CL =  1.9054
      Cm = -0.2056     CD =  0.04288   =>   CDf =  0.00874    CDp =  0.03414

 Point added to stored polar  1
 Point written to save file  000096M0.04.log                                 
 Dump file unspecified or not available
 Calculating wake trajectory ...
 Calculating source influence matrix ...

 Solving BL system ...

 Side 1  free  transition at x/c =  0.1430   52
 Side 2  free  transition at x/c =  0.3919   37

   1   rms: 0.1437E+00   max: -.8437E+00   T at   37  2   RLX: 0.593
       a = 11.000      CL =  1.9682
      Cm = -0.2045     CD =  0.04480   =>   CDf =  0.00844    CDp =  0.03636

 MRCHDU: Convergence failed at  38  side 2    Res =  0.3748E+01
 MRCHDU: Convergence failed at  39  side 2    Res =  0.1179E+02
 MRCHDU: Convergence failed at  40  side 2    Res =  0.1374E+02
 MRCHDU: Convergence failed at  41  side 2    Res =  0.2725E+02
 MRCHDU: Convergence failed at  42  side 2    Res =  0.7419E+02
 MRCHDU: Convergence failed at  43  side 2    Res =  0.3892E+03
 MRCHDU: Convergence failed at  44  side 2    Res =  0.6496E+02
 MRCHDU: Convergence failed at  45  side 2    Res =  0.3911E+02
 MRCHDU: Convergence failed at  46  side 2    Res =  0.3213E+02
 MRCHDU: Convergence failed at  47  side 2    Res =  0.2971E+02
 MRCHDU: Convergence failed at  48  side 2    Res =  0.2923E+02
 MRCHDU: Convergence failed at  49  side 2    Res =  0.2989E+02
 MRCHDU: Convergence failed at  50  side 2    Res =  0.3098E+02
 MRCHDU: Convergence failed at  51  side 2    Res =  0.3271E+02
 MRCHDU: Convergence failed at  52  side 2    Res =  0.3684E+02
 MRCHDU: Convergence failed at  53  side 2    Res =  0.4337E+02
 MRCHDU: Convergence failed at  54  side 2    Res =  0.4852E+02
 MRCHDU: Convergence failed at  55  side 2    Res =  0.6688E+02
 MRCHDU: Convergence failed at  56  side 2    Res =  0.9191E+02
 MRCHDU: Convergence failed at  57  side 2    Res =  0.2026E+03
 MRCHDU: Convergence failed at  58  side 2    Res =  0.2813E+03
 MRCHDU: Convergence failed at  59  side 2    Res =  0.1016E+03
 MRCHDU: Convergence failed at  60  side 2    Res =  0.2793E+02
 MRCHDU: Convergence failed at  61  side 2    Res =  0.2328E+02
 MRCHDU: Convergence failed at  62  side 2    Res =  0.3673E+02
 MRCHDU: Convergence failed at  63  side 2    Res =  0.1468E+02
 Side 1  free  transition at x/c =  0.1401   52
 Side 2  free  transition at x/c =  0.4124   37

   2   rms: 0.2830E+00   max: 0.2110E+01   T at   37  2   RLX: 0.499
       a = 11.000      CL =  1.9125
      Cm = -0.1811     CD =  0.04476   =>   CDf =  0.00788    CDp =  0.03688

 MRCHDU: Convergence failed at  57  side 2    Res =  0.1694E+00
 MRCHDU: Convergence failed at  58  side 2    Res =  0.3400E+00
 MRCHDU: Convergence failed at  59  side 2    Res =  0.4322E+00
 MRCHDU: Convergence failed at  60  side 2    Res =  0.5063E+00
 MRCHDU: Convergence failed at  61  side 2    Res =  0.5711E+00
 MRCHDU: Convergence failed at  62  side 2    Res =  0.6278E+00
 MRCHDU: Convergence failed at  63  side 2    Res =  0.6783E+00
 MRCHDU: Convergence failed at  64  side 2    Res =  0.8491E+00
 MRCHDU: Convergence failed at  65  side 2    Res =  0.1122E+01
 MRCHDU: Convergence failed at  66  side 2    Res =  0.1442E+01
 MRCHDU: Convergence failed at  67  side 2    Res =  0.1730E+01
 MRCHDU: Convergence failed at  68  side 2    Res =  0.1927E+01
 MRCHDU: Convergence failed at  69  side 2    Res =  0.3768E+01
 Side 1  free  transition at x/c =  0.1393   52
 Side 2  free  transition at x/c =  0.3885   36

   3   rms: 0.1487E+01   max: -.4103E+01   D at   86  2   RLX: 0.122
       a = 11.000      CL =  1.7613
      Cm = -0.1900     CD =  0.07097   =>   CDf =  0.00773    CDp =  0.06324

 Side 1  free  transition at x/c =  0.1445   51
 Side 2  free  transition at x/c =  0.3934   39

   4   rms: 0.2270E+01   max: -.9725E+01   T at    2  2   RLX: 0.051
       a = 11.000      CL =  1.6414
      Cm = -0.1828     CD =  0.07174   =>   CDf =  0.00719    CDp =  0.06455

 Side 1  free  transition at x/c =  0.1473   51
 Side 2  free  transition at x/c =  0.3940   39

   5   rms: 0.1474E+02   max: 0.2674E+03   D at    2  1   RLX: 0.006
       a = 11.000      CL =  1.6238
      Cm = -0.1808     CD =  0.07342   =>   CDf =  0.00708    CDp =  0.06633

 Side 1  free  transition at x/c =  0.1477   50
 Side 2  free  transition at x/c =  0.3940   40

   6   rms: 0.2983E+01   max: -.1032E+02   D at   72  2   RLX: 0.048
       a = 11.000      CL =  1.4545
      Cm = -0.1608     CD =  0.06280   =>   CDf =  0.00706    CDp =  0.05574

 Side 1  free  transition at x/c =  0.1512   49
 Side 2  free  transition at x/c =  0.3944   41

   7   rms: 0.1706E+01   max: -.9583E+01   D at   73  2   RLX: 0.052
       a = 11.000      CL =  1.3964
      Cm = -0.1548     CD =  0.05111   =>   CDf =  0.00674    CDp =  0.04437

 Side 1  free  transition at x/c =  0.1526   49
 Side 2  free  transition at x/c =  0.3964   41

   8   rms: 0.1121E+01   max: -.7270E+01   D at   73  2   RLX: 0.069
       a = 11.000      CL =  1.3833
      Cm = -0.1522     CD =  0.04416   =>   CDf =  0.00677    CDp =  0.03739

 Side 1  free  transition at x/c =  0.1528   49
 Side 2  free  transition at x/c =  0.3987   41

   9   rms: 0.8296E+00   max: -.5512E+01   D at   73  2   RLX: 0.091
       a = 11.000      CL =  1.4069
      Cm = -0.1534     CD =  0.03953   =>   CDf =  0.00684    CDp =  0.03269

 Side 1  free  transition at x/c =  0.1521   49
 Side 2  free  transition at x/c =  0.4017   41

  10   rms: 0.6792E+00   max: -.4183E+01   D at   73  2   RLX: 0.120
       a = 11.000      CL =  1.4604
      Cm = -0.1577     CD =  0.03682   =>   CDf =  0.00693    CDp =  0.02989

 Side 1  free  transition at x/c =  0.1507   49
 Side 2  free  transition at x/c =  0.4058   41

  11   rms: 0.5891E+00   max: -.3167E+01   D at   73  2   RLX: 0.158
       a = 11.000      CL =  1.5385
      Cm = -0.1644     CD =  0.03582   =>   CDf =  0.00689    CDp =  0.02893

 Side 1  free  transition at x/c =  0.1485   50
 Side 2  free  transition at x/c =  0.4113   40

  12   rms: 0.5189E+00   max: -.2385E+01   D at   72  2   RLX: 0.210
       a = 11.000      CL =  1.6333
      Cm = -0.1727     CD =  0.03621   =>   CDf =  0.00708    CDp =  0.02912

 Side 1  free  transition at x/c =  0.1461   51
 Side 2  free  transition at x/c =  0.4181   40

  13   rms: 0.3771E+00   max: 0.1662E+01   D at    2  1   RLX: 0.326
       a = 11.000      CL =  1.7500
      Cm = -0.1822     CD =  0.03832   =>   CDf =  0.00760    CDp =  0.03072

 Side 1  free  transition at x/c =  0.1434   51
 Side 2  free  transition at x/c =  0.4213   40

  14   rms: 0.2422E+00   max: -.8559E+00   D at   71  2   RLX: 0.584
       a = 11.000      CL =  1.8983
      Cm = -0.1943     CD =  0.04226   =>   CDf =  0.00773    CDp =  0.03453

 Side 1  free  transition at x/c =  0.1407   51
 Side 2  free  transition at x/c =  0.4208   39

  15   rms: 0.9290E-01   max: -.3087E+00   T at   70  2
       a = 11.000      CL =  1.9725
      Cm = -0.1990     CD =  0.04660   =>   CDf =  0.00804    CDp =  0.03856

 Side 1  free  transition at x/c =  0.1380   52
 Side 2  free  transition at x/c =  0.4159   37

  16   rms: 0.1389E-01   max: 0.1548E+00   D at   38  2
       a = 11.000      CL =  1.9740
      Cm = -0.1989     CD =  0.04684   =>   CDf =  0.00839    CDp =  0.03845

 Side 1  free  transition at x/c =  0.1378   52
 Side 2  free  transition at x/c =  0.4120   37

  17   rms: 0.1625E-02   max: 0.9960E-02   D at   40  2
       a = 11.000      CL =  1.9739
      Cm = -0.1988     CD =  0.04686   =>   CDf =  0.00839    CDp =  0.03847

 Side 1  free  transition at x/c =  0.1378   52
 Side 2  free  transition at x/c =  0.4119   37

  18   rms: 0.4623E-05   max: 0.4683E-04   D at   38  2
       a = 11.000      CL =  1.9739
      Cm = -0.1988     CD =  0.04686   =>   CDf =  0.00838    CDp =  0.03848

 Point added to stored polar  1
 Point written to save file  000096M0.04.log                                 
 Dump file unspecified or not available
 Calculating wake trajectory ...
 Calculating source influence matrix ...

 Solving BL system ...

 Side 1  free  transition at x/c =  0.1378   52
 Side 2  free  transition at x/c =  0.4119   37

   1   rms: 0.1175E+00   max: -.6371E+00   T at   37  2   RLX: 0.724
       a = 12.000      CL =  2.0208
      Cm = -0.1939     CD =  0.04990   =>   CDf =  0.00807    CDp =  0.04182

 Side 1  free  transition at x/c =  0.1342   53
 Side 2  free  transition at x/c =  0.4330   37

   2   rms: 0.6091E-01   max: 0.7064E+00   D at   37  2
       a = 12.000      CL =  2.0351
      Cm = -0.1918     CD =  0.05104   =>   CDf =  0.00824    CDp =  0.04280

 Side 1  free  transition at x/c =  0.1334   53
 Side 2  free  transition at x/c =  0.4342   37

   3   rms: 0.1099E-01   max: 0.1162E+00   D at   38  2
       a = 12.000      CL =  2.0354
      Cm = -0.1917     CD =  0.05097   =>   CDf =  0.00821    CDp =  0.04276

 Side 1  free  transition at x/c =  0.1334   53
 Side 2  free  transition at x/c =  0.4322   37

   4   rms: 0.3065E-03   max: 0.3551E-02   D at   38  2
       a = 12.000      CL =  2.0356
      Cm = -0.1918     CD =  0.05096   =>   CDf =  0.00821    CDp =  0.04275

 Side 1  free  transition at x/c =  0.1334   53
 Side 2  free  transition at x/c =  0.4322   37

   5   rms: 0.5461E-05   max: 0.4557E-04   D at   38  2
       a = 12.000      CL =  2.0356
      Cm = -0.1918     CD =  0.05096   =>   CDf =  0.00821    CDp =  0.04275

 Point added to stored polar  1
 Point written to save file  000096M0.04.log                                 
 Dump file unspecified or not available
 Calculating wake trajectory ...
 Calculating source influence matrix ...

 Solving BL system ...

 Side 1  free  transition at x/c =  0.1334   53
 Side 2  free  transition at x/c =  0.4322   37

   1   rms: 0.1162E+00   max: -.6475E+00   T at   37  2   RLX: 0.672
       a = 13.000      CL =  2.0804
      Cm = -0.1876     CD =  0.05372   =>   CDf =  0.00788    CDp =  0.04584

 Side 1  free  transition at x/c =  0.1307   53
 Side 2  free  transition at x/c =  0.4480   37

   2   rms: 0.3632E-01   max: 0.2472E+00   D at   37  2
       a = 13.000      CL =  2.0890
      Cm = -0.1843     CD =  0.05622   =>   CDf =  0.00820    CDp =  0.04801

 Side 1  free  transition at x/c =  0.1293   53
 Side 2  free  transition at x/c =  0.4526   37

   3   rms: 0.3975E-02   max: -.2431E-01   D at   37  2
       a = 13.000      CL =  2.0913
      Cm = -0.1847     CD =  0.05615   =>   CDf =  0.00795    CDp =  0.04821

 Side 1  free  transition at x/c =  0.1291   53
 Side 2  free  transition at x/c =  0.4532   37

   4   rms: 0.1015E-03   max: 0.1003E-02   D at   38  2
       a = 13.000      CL =  2.0914
      Cm = -0.1847     CD =  0.05617   =>   CDf =  0.00795    CDp =  0.04822

 Side 1  free  transition at x/c =  0.1291   53
 Side 2  free  transition at x/c =  0.4532   37

   5   rms: 0.3162E-05   max: -.1411E-04   D at    2  2
       a = 13.000      CL =  2.0914
      Cm = -0.1847     CD =  0.05617   =>   CDf =  0.00795    CDp =  0.04822

 Point added to stored polar  1
 Point written to save file  000096M0.04.log                                 
 Dump file unspecified or not available
 Calculating wake trajectory ...
 Calculating source influence matrix ...

 Solving BL system ...

 Side 1  free  transition at x/c =  0.1291   53
 Side 2  free  transition at x/c =  0.4532   37

   1   rms: 0.1057E+00   max: -.5834E+00   T at   37  2   RLX: 0.597
       a = 14.000      CL =  2.1110
      Cm = -0.1792     CD =  0.06014   =>   CDf =  0.00761    CDp =  0.05254

 Side 1  free  transition at x/c =  0.1268   54
 Side 2  free  transition at x/c =  0.4655   37

   2   rms: 0.4368E-01   max: -.3057E+00   T at   37  2
       a = 14.000      CL =  2.1228
      Cm = -0.1759     CD =  0.06295   =>   CDf =  0.00766    CDp =  0.05529

 Side 1  free  transition at x/c =  0.1253   54
 Side 2  free  transition at x/c =  0.4729   37

   3   rms: 0.1852E-01   max: -.1534E+00   D at   37  2
       a = 14.000      CL =  2.1213
      Cm = -0.1758     CD =  0.06284   =>   CDf =  0.00746    CDp =  0.05538

 Side 1  free  transition at x/c =  0.1253   54
 Side 2  free  transition at x/c =  0.4738   37

   4   rms: 0.9174E-03   max: 0.1090E-01   D at   38  2
       a = 14.000      CL =  2.1215
      Cm = -0.1758     CD =  0.06282   =>   CDf =  0.00747    CDp =  0.05535

 Side 1  free  transition at x/c =  0.1253   54
 Side 2  free  transition at x/c =  0.4738   37

   5   rms: 0.1208E-04   max: 0.1292E-03   D at   38  2
       a = 14.000      CL =  2.1216
      Cm = -0.1758     CD =  0.06283   =>   CDf =  0.00747    CDp =  0.05535

 Point added to stored polar  1
 Point written to save file  000096M0.04.log                                 
 Dump file unspecified or not available
 Calculating wake trajectory ...
 Calculating source influence matrix ...

 Solving BL system ...

 Side 1  free  transition at x/c =  0.1253   54
 Side 2  free  transition at x/c =  0.4738   37

   1   rms: 0.1038E+00   max: -.5502E+00   T at   37  2   RLX: 0.544
       a = 15.000      CL =  2.1403
      Cm = -0.1716     CD =  0.06652   =>   CDf =  0.00712    CDp =  0.05941

 Side 1  free  transition at x/c =  0.1233   55
 Side 2  free  transition at x/c =  0.4856   37

   2   rms: 0.5320E-01   max: -.4263E+00   T at   37  2
       a = 15.000      CL =  2.1582
      Cm = -0.1686     CD =  0.06913   =>   CDf =  0.00736    CDp =  0.06177

 Side 1  free  transition at x/c =  0.1220   55
 Side 2  free  transition at x/c =  0.4960   37

   3   rms: 0.3192E-01   max: -.2587E+00   D at   37  2
       a = 15.000      CL =  2.1615
      Cm = -0.1688     CD =  0.06869   =>   CDf =  0.00729    CDp =  0.06140

 Side 1  free  transition at x/c =  0.1219   55
 Side 2  free  transition at x/c =  0.4983   37

   4   rms: 0.2884E-02   max: 0.3596E-01   D at   38  2
       a = 15.000      CL =  2.1620
      Cm = -0.1688     CD =  0.06874   =>   CDf =  0.00734    CDp =  0.06140

 Side 1  free  transition at x/c =  0.1219   55
 Side 2  free  transition at x/c =  0.4978   37

   5   rms: 0.5467E-04   max: 0.7529E-03   D at   38  2
       a = 15.000      CL =  2.1620
      Cm = -0.1688     CD =  0.06875   =>   CDf =  0.00735    CDp =  0.06140

 Point added to stored polar  1
 Point written to save file  000096M0.04.log                                 
 Dump file unspecified or not available

.OPERva   c>  
 XFOIL   c>  
0.1
resp: 
 ===================================================
  XFOIL Version 6.97
  Copyright (C) 2000   Mark Drela, Harold Youngren

  This software comes with ABSOLUTELY NO WARRANTY,
    subject to the GNU General Public License.

  Caveat computor
 ===================================================

 File  xfoil.def  not found

   QUIT    Exit program

  .OPER    Direct operating point(s)
  .MDES    Complex mapping design routine
  .QDES    Surface speed design routine
  .GDES    Geometry design routine

   SAVE f  Write airfoil to labeled coordinate file
   PSAV f  Write airfoil to plain coordinate file
   ISAV f  Write airfoil to ISES coordinate file
   MSAV f  Write airfoil to MSES coordinate file
   REVE    Reverse written-airfoil node ordering
   DELI i  Change written-airfoil file delimiters

   LOAD f  Read buffer airfoil from coordinate file
   NACA i  Set NACA 4,5-digit airfoil and buffer airfoil
   INTE    Set buffer airfoil by interpolating two airfoils
   NORM    Buffer airfoil normalization toggle
   HALF    Halve the number of points in buffer airfoil
   XYCM rr Change CM reference location, currently  0.25000 0.00000

   BEND    Display structural properties of current airfoil

   PCOP    Set current-airfoil panel nodes directly from buffer airfoil points
   PANE    Set current-airfoil panel nodes ( 160 ) based on curvature
  .PPAR    Show/change paneling

  .PLOP    Plotting options

   WDEF f  Write  current-settings file
   RDEF f  Reread current-settings file
   NAME s  Specify new airfoil name
   NINC    Increment name version number

   Z       Zoom    | (available in all menus)
   U       Unzoom  | 

 XFOIL   c>   ...............................................

  G raphics-enable flag:        T
  S ize of plot object          10.00"
  A spect ratio of plot object   0.5500
  P age dimensions              11.00 x  8.50"
  M argins from page edges       0.00",  0.00"
  F ont size (relative)          0.0150
  W indow/screen size fraction   0.8000
  B lowup input method:        Cursor    
  O rientation of plot:        Landscape 
  C olor PostScript output?     F

      Option, Value   (or <Return>)    c>   ...............................................

  G raphics-enable flag:        F
  S ize of plot object          10.00"
  A spect ratio of plot object   0.5500
  P age dimensions              11.00 x  8.50"
  M argins from page edges       0.00",  0.00"
  F ont size (relative)          0.0150
  W indow/screen size fraction   0.8000
  B lowup input method:        Cursor    
  O rientation of plot:        Landscape 
  C olor PostScript output?     F

      Option, Value   (or <Return>)    c>  
 XFOIL   c>  
 Labeled airfoil file.  Name:  000096                                          

 Number of input coordinate points: 200
 Clockwise ordering
 Max thickness =     0.182335  at x =   0.147
 Max camber    =     0.088955  at x =   0.624

  LE  x,y  =  -0.00000   0.00077  |   Chord =   0.99988
  TE  x,y  =   0.99988   0.00006  |

 Current airfoil nodes set from buffer airfoil nodes ( 200 )

 XFOIL   c>  
 You are working with the buffer airfoil

.GDES   c>  
  i       x        y      angle
   2   0.9990   0.0005   -0.036
   3   0.9978   0.0011    0.064
   4   0.9961   0.0019    0.047
   5   0.9938   0.0030    0.082
   6   0.9911   0.0043    0.094
   7   0.9880   0.0058    0.096
   8   0.9843   0.0076    0.136
   9   0.9801   0.0096    0.145
  10   0.9755   0.0118    0.170
  11   0.9704   0.0142    0.198
  12   0.9649   0.0168    0.205
  13   0.9589   0.0195    0.241
  14   0.9524   0.0225    0.273
  15   0.9455   0.0256    0.293
  16   0.9382   0.0289    0.316
  17   0.9304   0.0323    0.366
  18   0.9222   0.0358    0.381
  19   0.9135   0.0395    0.414
  20   0.9045   0.0432    0.453
  21   0.8951   0.0471    0.490
  22   0.8853   0.0509    0.513
  23   0.8751   0.0549    0.554
  24   0.8645   0.0588    0.583
  25   0.8536   0.0628    0.618
  26   0.8423   0.0667    0.652
  27   0.8307   0.0707    0.675
  28   0.8187   0.0745    0.704
  29   0.8065   0.0783    0.736
  30   0.7939   0.0821    0.757
  31   0.7810   0.0857    0.777
  32   0.7679   0.0892    0.791
  33   0.7545   0.0926    0.811
  34   0.7409   0.0959    0.814
  35   0.7270   0.0990    0.822
  36   0.7129   0.1019    0.823
  37   0.6986   0.1047    0.820
  38   0.6841   0.1073    0.812
  39   0.6694   0.1097    0.796
  40   0.6545   0.1119    0.780
  41   0.6395   0.1140    0.758
  42   0.6243   0.1158    0.733
  43   0.6091   0.1175    0.700
  44   0.5937   0.1190    0.665
  45   0.5782   0.1203    0.632
  46   0.5627   0.1215    0.591
  47   0.5471   0.1225    0.543
  48   0.5314   0.1233    0.505
  49   0.5157   0.1240    0.461
  50   0.5000   0.1246    0.412
  51   0.4843   0.1251    0.371
  52   0.4686   0.1255    0.323
  53   0.4529   0.1257    0.290
  54   0.4373   0.1260    0.240
  55   0.4218   0.1261    0.212
  56   0.4063   0.1262    0.181
  57   0.3909   0.1262    0.149
  58   0.3757   0.1262    0.133
  59   0.3605   0.1262    0.120
  60   0.3455   0.1261    0.103
  61   0.3306   0.1260    0.114
  62   0.3159   0.1259    0.117
  63   0.3014   0.1257    0.136
  64   0.2871   0.1255    0.166
  65   0.2730   0.1253    0.196
  66   0.2591   0.1250    0.250
  67   0.2455   0.1247    0.312
  68   0.2321   0.1243    0.378
  69   0.2190   0.1238    0.472
  70   0.2061   0.1233    0.559
  71   0.1935   0.1226    0.677
  72   0.1813   0.1218    0.795
  73   0.1693   0.1208    0.939
  74   0.1577   0.1197    1.093
  75   0.1464   0.1184    1.260
  76   0.1355   0.1169    1.433
  77   0.1249   0.1152    1.642
  78   0.1147   0.1132    1.846
  79   0.1049   0.1110    2.060
  80   0.0955   0.1085    2.294
  81   0.0865   0.1057    2.528
  82   0.0778   0.1026    2.760
  83   0.0696   0.0993    3.003
  84   0.0618   0.0956    3.223
  85   0.0545   0.0915    3.441
  86   0.0476   0.0872    3.630
  87   0.0411   0.0826    3.800
  88   0.0351   0.0776    3.926
  89   0.0296   0.0724    4.035
  90   0.0245   0.0668    4.097
  91   0.0199   0.0610    4.144
  92   0.0157   0.0549    4.153
  93   0.0120   0.0486    4.125
  94   0.0089   0.0421    4.110
  95   0.0062   0.0354    4.059
  96   0.0039   0.0285    4.019
  97   0.0022   0.0215    3.988
  98   0.0010   0.0144    3.946
  99   0.0002   0.0072    3.929
 100   0.0000   0.0000    4.929
 101   0.0002  -0.0048    5.900
 102   0.0010  -0.0095    5.828
 103   0.0022  -0.0142    5.737
 104   0.0039  -0.0188    5.575
 105   0.0062  -0.0234    5.413
 106   0.0089  -0.0278    5.232
 107   0.0120  -0.0321    5.005
 108   0.0157  -0.0362    4.796
 109   0.0199  -0.0401    4.580
 110   0.0245  -0.0439    4.352
 111   0.0296  -0.0474    4.134
 112   0.0351  -0.0507    3.921
 113   0.0411  -0.0537    3.715
 114   0.0476  -0.0564    3.511
 115   0.0545  -0.0588    3.318
 116   0.0618  -0.0609    3.127
 117   0.0696  -0.0627    2.946
 118   0.0778  -0.0641    2.774
 119   0.0865  -0.0652    2.600
 120   0.0955  -0.0659    2.445
 121   0.1049  -0.0663    2.289
 122   0.1147  -0.0663    2.127
 123   0.1249  -0.0659    1.983
 124   0.1355  -0.0651    1.841
 125   0.1464  -0.0639    1.710
 126   0.1577  -0.0623    1.564
 127   0.1693  -0.0604    1.442
 128   0.1813  -0.0581    1.310
 129   0.1935  -0.0555    1.188
 130   0.2061  -0.0525    1.069
 131   0.2190  -0.0492    0.948
 132   0.2321  -0.0456    0.839
 133   0.2455  -0.0417    0.725
 134   0.2591  -0.0376    0.612
 135   0.2730  -0.0332    0.507
 136   0.2871  -0.0286    0.402
 137   0.3014  -0.0238    0.297
 138   0.3159  -0.0189    0.198
 139   0.3306  -0.0139    0.098
 140   0.3455  -0.0088   -0.000
 141   0.3605  -0.0036   -0.098
 142   0.3757   0.0016   -0.194
 143   0.3909   0.0068   -0.283
 144   0.4063   0.0119   -0.374
 145   0.4218   0.0170   -0.463
 146   0.4373   0.0219   -0.555
 147   0.4529   0.0267   -0.631
 148   0.4686   0.0313   -0.715
 149   0.4843   0.0357   -0.791
 150   0.5000   0.0399   -0.865
 151   0.5157   0.0438   -0.939
 152   0.5314   0.0475   -0.999
 153   0.5471   0.0509   -1.061
 154   0.5627   0.0539   -1.114
 155   0.5782   0.0566   -1.160
 156   0.5937   0.0590   -1.203
 157   0.6091   0.0611   -1.237
 158   0.6243   0.0628   -1.263
 159   0.6395   0.0641   -1.277
 160   0.6545   0.0651   -1.295
 161   0.6694   0.0658   -1.292
 162   0.6841   0.0661   -1.295
 163   0.6986   0.0660   -1.274
 164   0.7129   0.0657   -1.266
 165   0.7270   0.0651   -1.231
 166   0.7409   0.0641   -1.206
 167   0.7545   0.0629   -1.171
 168   0.7679   0.0615   -1.122
 169   0.7810   0.0598   -1.080
 170   0.7939   0.0579   -1.037
 171   0.8065   0.0558   -0.977
 172   0.8187   0.0535   -0.929
 173   0.8307   0.0511   -0.872
 174   0.8423   0.0486   -0.820
 175   0.8536   0.0460   -0.757
 176   0.8645   0.0433   -0.710
 177   0.8751   0.0405   -0.652
 178   0.8853   0.0378   -0.602
 179   0.8951   0.0350   -0.547
 180   0.9045   0.0322   -0.493
 181   0.9135   0.0295   -0.452
 182   0.9222   0.0268   -0.405
 183   0.9304   0.0242   -0.363
 184   0.9382   0.0216   -0.322
 185   0.9455   0.0192   -0.282
 186   0.9524   0.0169   -0.256
 187   0.9589   0.0147   -0.203
 188   0.9649   0.0126   -0.203
 189   0.9704   0.0106   -0.146
 190   0.9755   0.0088   -0.151
 191   0.9801   0.0072   -0.109
 192   0.9843   0.0057   -0.093
 193   0.9880   0.0044   -0.079
 194   0.9911   0.0032   -0.073
 195   0.9938   0.0022   -0.044
 196   0.9961   0.0014   -0.032
 197   0.9978   0.0008   -0.061
 198   0.9990   0.0004   -0.008
 199   0.9998   0.0001    0.094

 Maximum panel corner angle =  5.900   at  i,x,y  = 101   0.0002  -0.0048

 Enter corner angle criterion for refinement (deg):   2.950
 Enter type of spline parameter (1=uniform, 2=arclength):   1
 Enter refinement x limits:  -0.10000   1.10000
 Number of points added:           68
 Max thickness =     0.182318  at x =   0.146
 Max camber    =     0.089246  at x =   0.624

 Maximum panel corner angle =  2.774   at  i,x,y  = 186   0.0778  -0.0641

.GDES   c>  
 Buffer airfoil is not identical to current airfoil

 XFOIL   c>  
 Blunt trailing edge.  Gap =  0.00028

 Paneling parameters used...
   Number of panel nodes       160
   Panel bunching parameter    1.000
   TE/LE panel density ratio   0.150
   Refined-area/LE panel density ratio    0.200
   Top    side refined area x/c limits  1.000 1.000
   Bottom side refined area x/c limits  1.000 1.000

 XFOIL   c>  
.OPERi   c>   Current iteration limit:          20

Enter new iteration limit   i>  
Enter new iteration limit   i>  
Enter new iteration limit   i>  
.OPERi   c>  
 M  =    0.0000
 Re =  0.3000E+06

.OPERv   c>  
 Sonic Cp =    -66.86      Sonic Q/Qinf =     9.138


.OPERv   c>  
 Polar  1 newly created for accumulation
 Airfoil archived with polar: 000096                                          

Enter  polar save filename  OR  <return> for no file   s>  
 New polar save file available

Enter  polar dump filename  OR  <return> for no file   s>  
 Polar dump file will NOT be written

 Polar accumulation enabled

.OPERva   c>   Calculating unit vorticity distributions ...
 Calculating wake trajectory ...
 Calculating source influence matrix ...

 Solving BL system ...

 Initializing BL ...
    side            1  ...
 MRCHUE: Inverse mode at  41     Hk =   4.534
 MRCHUE: Inverse mode at  42     Hk =   5.384
 MRCHUE: Inverse mode at  43     Hk =   6.260
 MRCHUE: Inverse mode at  44     Hk =   7.176
 MRCHUE: Inverse mode at  45     Hk =   8.143
 MRCHUE: Inverse mode at  46     Hk =   9.175
 MRCHUE: Inverse mode at  47     Hk =   6.761
 MRCHUE: Inverse mode at  48     Hk =   2.777
 MRCHUE: Inverse mode at  81     Hk =   2.500
 MRCHUE: Inverse mode at  82     Hk =   2.500
 MRCHUE: Inverse mode at  83     Hk =   2.500
 MRCHUE: Convergence failed at  84  side 1    Res =  0.4770E+01
    side            2  ...
 MRCHUE: Inverse mode at  34     Hk =   3.981
 MRCHUE: Inverse mode at  35     Hk =   4.769
 MRCHUE: Inverse mode at  36     Hk =   5.572
 MRCHUE: Inverse mode at  37     Hk =   6.402
 MRCHUE: Inverse mode at  38     Hk =   7.268
 MRCHUE: Inverse mode at  39     Hk =   8.179
 MRCHUE: Inverse mode at  40     Hk =   9.141
 MRCHUE: Inverse mode at  41     Hk =   8.176
 MRCHUE: Inverse mode at  42     Hk =   3.996
 MRCHUE: Inverse mode at  43     Hk =   2.500
 MRCHUE: Inverse mode at  44     Hk =   2.500
 MRCHUE: Inverse mode at  45     Hk =   2.500
 MRCHUE: Inverse mode at  46     Hk =   2.500
 MRCHUE: Inverse mode at  47     Hk =   2.500
 MRCHUE: Inverse mode at  48     Hk =   2.500
 MRCHUE: Inverse mode at  49     Hk =   2.500
 MRCHUE: Inverse mode at  50     Hk =   2.500
 MRCHUE: Inverse mode at  51     Hk =   2.500
 MRCHUE: Inverse mode at  52     Hk =   2.500
 MRCHUE: Inverse mode at  53     Hk =   2.500
 MRCHUE: Inverse mode at  54     Hk =   2.500
 MRCHUE: Inverse mode at  55     Hk =   2.500
 MRCHUE: Inverse mode at  56     Hk =   2.500
 MRCHUE: Inverse mode at  57     Hk =   2.500
 MRCHUE: Inverse mode at  58     Hk =   2.500
 MRCHUE: Inverse mode at  59     Hk =   2.500
 MRCHUE: Inverse mode at  60     Hk =   2.500
 MRCHUE: Inverse mode at  61     Hk =   2.500
 MRCHUE: Inverse mode at  62     Hk =   2.500
 MRCHUE: Inverse mode at  63     Hk =   2.500
 MRCHUE: Inverse mode at  64     Hk =   2.500

 MRCHDU: Convergence failed at  84  side 1    Res =  0.4084E+01
 Side 1  free  transition at x/c =  0.1898   47
 Side 2  free  transition at x/c =  0.2909   41

   1   rms: 0.3265E+00   max: 0.2194E+01   T at   41  2   RLX: 0.490
       a =  2.000      CL =  1.3677
      Cm = -0.2772     CD =  0.01846   =>   CDf =  0.00931    CDp =  0.00915

 Side 1  free  transition at x/c =  0.1971   46
 Side 2  free  transition at x/c =  0.2687   41

   2   rms: 0.2953E+00   max: 0.2449E+01   T at   41  2   RLX: 0.426
       a =  2.000      CL =  1.2266
      Cm = -0.2459     CD =  0.02429   =>   CDf =  0.00874    CDp =  0.01556

 Side 1  free  transition at x/c =  0.2048   47
 Side 2  free  transition at x/c =  0.2524   40

   3   rms: 0.1708E+00   max: 0.8226E+00   T at   40  2   RLX: 0.915
       a =  2.000      CL =  1.1149
      Cm = -0.2267     CD =  0.02448   =>   CDf =  0.00819    CDp =  0.01629

 Side 1  free  transition at x/c =  0.2139   46
 Side 2  free  transition at x/c =  0.2415   41

   4   rms: 0.2065E+00   max: -.9170E+00   T at   41  2   RLX: 0.545
       a =  2.000      CL =  1.1478
      Cm = -0.2357     CD =  0.02646   =>   CDf =  0.00787    CDp =  0.01860

 Side 1  free  transition at x/c =  0.2130   46
 Side 2  free  transition at x/c =  0.2491   41

   5   rms: 0.8539E+00   max: 0.5588E+01   T at   41  2   RLX: 0.237
       a =  2.000      CL =  1.0179
      Cm = -0.2030     CD =  0.03064   =>   CDf =  0.00814    CDp =  0.02250

 Side 1  free  transition at x/c =  0.2183   46
 Side 2  free  transition at x/c =  0.2320   41

   6   rms: 0.1454E+01   max: 0.1372E+02   T at   41  2   RLX: 0.089
       a =  2.000      CL =  0.8867
      Cm = -0.1702     CD =  0.03602   =>   CDf =  0.00748    CDp =  0.02854

 Side 1  free  transition at x/c =  0.2256   46
 Side 2  free  transition at x/c =  0.2192   40

   7   rms: 0.1264E+00   max: 0.6771E+00   T at   40  2   RLX: 0.994
       a =  2.000      CL =  0.9354
      Cm = -0.1824     CD =  0.03059   =>   CDf =  0.00704    CDp =  0.02355

 Side 1  free  transition at x/c =  0.2240   46
 Side 2  free  transition at x/c =  0.2132   40

   8   rms: 0.1335E+00   max: -.7523E+00   T at   40  2   RLX: 0.665
       a =  2.000      CL =  0.9903
      Cm = -0.1960     CD =  0.03118   =>   CDf =  0.00712    CDp =  0.02406

 Side 1  free  transition at x/c =  0.2211   46
 Side 2  free  transition at x/c =  0.2216   40

   9   rms: 0.1035E+00   max: -.5567E+00   T at   41  2   RLX: 0.898
       a =  2.000      CL =  0.9727
      Cm = -0.1915     CD =  0.03061   =>   CDf =  0.00733    CDp =  0.02328

 Side 1  free  transition at x/c =  0.2221   46
 Side 2  free  transition at x/c =  0.2189   40

  10   rms: 0.8598E-01   max: 0.9990E+00   T at   40  2
       a =  2.000      CL =  0.8861
      Cm = -0.1692     CD =  0.03348   =>   CDf =  0.00725    CDp =  0.02623

 Side 1  free  transition at x/c =  0.2261   46
 Side 2  free  transition at x/c =  0.2081   40

  11   rms: 0.1124E+00   max: -.5560E+00   D at   41  2   RLX: 0.899
       a =  2.000      CL =  0.9203
      Cm = -0.1779     CD =  0.03245   =>   CDf =  0.00698    CDp =  0.02546

 Side 1  free  transition at x/c =  0.2246   46
 Side 2  free  transition at x/c =  0.2116   40

  12   rms: 0.1280E+00   max: -.8944E+00   T at   40  2   RLX: 0.559
       a =  2.000      CL =  0.9750
      Cm = -0.1922     CD =  0.03135   =>   CDf =  0.00713    CDp =  0.02422

 Side 1  free  transition at x/c =  0.2221   46
 Side 2  free  transition at x/c =  0.2203   40

  13   rms: 0.8789E-01   max: 0.6496E+00   T at   40  2   RLX: 0.933
       a =  2.000      CL =  0.9477
      Cm = -0.1853     CD =  0.03115   =>   CDf =  0.00730    CDp =  0.02385

 Side 1  free  transition at x/c =  0.2233   46
 Side 2  free  transition at x/c =  0.2151   40

  14   rms: 0.1639E+00   max: -.9299E+00   T at   40  2   RLX: 0.538
       a =  2.000      CL =  0.9925
      Cm = -0.1962     CD =  0.03176   =>   CDf =  0.00715    CDp =  0.02461

 Side 1  free  transition at x/c =  0.2206   46
 Side 2  free  transition at x/c =  0.2235   41

  15   rms: 0.9777E-01   max: -.5522E+00   T at   41  2   RLX: 0.905
       a =  2.000      CL =  1.0378
      Cm = -0.2084     CD =  0.02869   =>   CDf =  0.00733    CDp =  0.02136

 Side 1  free  transition at x/c =  0.2189   47
 Side 2  free  transition at x/c =  0.2293   40

  16   rms: 0.9250E+01   max: 0.1280E+03   D at    2  1   RLX: 0.009
       a =  2.000      CL =  1.0043
      Cm = -0.1995     CD =  0.03135   =>   CDf =  0.00767    CDp =  0.02369

 Side 1  free  transition at x/c =  0.2208   46
 Side 2  free  transition at x/c =  0.2236   41

  17   rms: 0.1018E+00   max: -.6060E+00   T at   41  2   RLX: 0.825
       a =  2.000      CL =  1.0355
      Cm = -0.2078     CD =  0.02891   =>   CDf =  0.00741    CDp =  0.02150

 Side 1  free  transition at x/c =  0.2190   46
 Side 2  free  transition at x/c =  0.2286   41

  18   rms: 0.6583E+00   max: -.4569E+01   T at   41  2   RLX: 0.109
       a =  2.000      CL =  1.0811
      Cm = -0.2193     CD =  0.02877   =>   CDf =  0.00745    CDp =  0.02132

 Side 1  free  transition at x/c =  0.2165   47
 Side 2  free  transition at x/c =  0.2376   40

  19   rms: 0.1108E+00   max: 0.7526E+00   T at   40  2   RLX: 0.794
       a =  2.000      CL =  1.0617
      Cm = -0.2150     CD =  0.02821   =>   CDf =  0.00811    CDp =  0.02009

 Side 1  free  transition at x/c =  0.2175   47
 Side 2  free  transition at x/c =  0.2301   40

  20   rms: 0.1926E+00   max: -.1007E+01   T at   40  2   RLX: 0.497
       a =  2.000      CL =  1.0961
      Cm = -0.2228     CD =  0.02831   =>   CDf =  0.00763    CDp =  0.02068

 Side 1  free  transition at x/c =  0.2148   46
 Side 2  free  transition at x/c =  0.2393   41

  21   rms: 0.8793E-01   max: -.5114E+00   T at   41  2   RLX: 0.978
       a =  2.000      CL =  1.1194
      Cm = -0.2293     CD =  0.02639   =>   CDf =  0.00815    CDp =  0.01824

 Side 1  free  transition at x/c =  0.2143   46
 Side 2  free  transition at x/c =  0.2448   41

  22   rms: 0.8157E-01   max: -.4322E+00   T at   41  2
       a =  2.000      CL =  1.1501
      Cm = -0.2368     CD =  0.02536   =>   CDf =  0.00834    CDp =  0.01702

 Side 1  free  transition at x/c =  0.2133   46
 Side 2  free  transition at x/c =  0.2541   41

  23   rms: 0.2969E-01   max: -.1354E+00   D at   42  2
       a =  2.000      CL =  1.1549
      Cm = -0.2379     CD =  0.02528   =>   CDf =  0.00861    CDp =  0.01667

 Side 1  free  transition at x/c =  0.2131   46
 Side 2  free  transition at x/c =  0.2549   41

  24   rms: 0.1527E-02   max: 0.1306E-01   D at   42  2
       a =  2.000      CL =  1.1543
      Cm = -0.2378     CD =  0.02530   =>   CDf =  0.00868    CDp =  0.01662

 Side 1  free  transition at x/c =  0.2131   46
 Side 2  free  transition at x/c =  0.2548   41

  25   rms: 0.2323E-04   max: 0.1503E-03   D at   42  2
       a =  2.000      CL =  1.1543
      Cm = -0.2378     CD =  0.02530   =>   CDf =  0.00868    CDp =  0.01662

 Point added to stored polar  1
 Point written to save file  000096M0.1.log                                  
 Dump file unspecified or not available
 Calculating wake trajectory ...
 Calculating source influence matrix ...

 Solving BL system ...

 Side 1  free  transition at x/c =  0.2131   46
 Side 2  free  transition at x/c =  0.2548   41

   1   rms: 0.1521E+00   max: -.9395E+00   T at   41  2   RLX: 0.532
       a =  3.000      CL =  1.2156
      Cm = -0.2375     CD =  0.02587   =>   CDf =  0.00854    CDp =  0.01733

 Side 1  free  transition at x/c =  0.2056   47
 Side 2  free  transition at x/c =  0.2669   41

   2   rms: 0.1065E+00   max: 0.1037E+01   D at   41  2
       a =  3.000      CL =  1.2583
      Cm = -0.2348     CD =  0.02671   =>   CDf =  0.00876    CDp =  0.01794

 Side 1  free  transition at x/c =  0.1993   47
 Side 2  free  transition at x/c =  0.2702   41

   3   rms: 0.2370E-01   max: 0.1430E+00   D at   41  2
       a =  3.000      CL =  1.2558
      Cm = -0.2344     CD =  0.02693   =>   CDf =  0.00878    CDp =  0.01815

 Side 1  free  transition at x/c =  0.1993   47
[...]
 MRCHDU: Convergence failed at  48  side 2    Res =  0.2846E+02
 MRCHDU: Convergence failed at  49  side 2    Res =  0.2918E+02
 MRCHDU: Convergence failed at  50  side 2    Res =  0.3030E+02
 MRCHDU: Convergence failed at  51  side 2    Res =  0.3301E+02
 MRCHDU: Convergence failed at  52  side 2    Res =  0.3608E+02
 MRCHDU: Convergence failed at  53  side 2    Res =  0.4243E+02
 MRCHDU: Convergence failed at  54  side 2    Res =  0.5084E+02
 MRCHDU: Convergence failed at  55  side 2    Res =  0.6463E+02
 MRCHDU: Convergence failed at  56  side 2    Res =  0.8640E+02
 MRCHDU: Convergence failed at  57  side 2    Res =  0.2407E+03
 MRCHDU: Convergence failed at  58  side 2    Res =  0.6755E+03
 MRCHDU: Convergence failed at  59  side 2    Res =  0.1185E+03
 MRCHDU: Convergence failed at  60  side 2    Res =  0.2972E+02
 MRCHDU: Convergence failed at  61  side 2    Res =  0.2313E+02
 MRCHDU: Convergence failed at  62  side 2    Res =  0.3176E+02
 MRCHDU: Convergence failed at  63  side 2    Res =  0.1864E+02
 Side 1  free  transition at x/c =  0.1372   52
 Side 2  free  transition at x/c =  0.4124   37

   2   rms: 0.2929E+00   max: 0.2178E+01   T at   37  2   RLX: 0.480
       a = 11.000      CL =  1.9390
      Cm = -0.1853     CD =  0.04389   =>   CDf =  0.00782    CDp =  0.03607

 MRCHDU: Convergence failed at  57  side 2    Res =  0.1776E+00
 MRCHDU: Convergence failed at  58  side 2    Res =  0.3470E+00
 MRCHDU: Convergence failed at  59  side 2    Res =  0.4392E+00
 MRCHDU: Convergence failed at  60  side 2    Res =  0.5129E+00
 MRCHDU: Convergence failed at  61  side 2    Res =  0.5775E+00
 MRCHDU: Convergence failed at  62  side 2    Res =  0.6340E+00
 MRCHDU: Convergence failed at  63  side 2    Res =  0.6842E+00
 MRCHDU: Convergence failed at  64  side 2    Res =  0.8444E+00
 MRCHDU: Convergence failed at  65  side 2    Res =  0.1109E+01
 MRCHDU: Convergence failed at  66  side 2    Res =  0.1430E+01
 MRCHDU: Convergence failed at  67  side 2    Res =  0.1719E+01
 MRCHDU: Convergence failed at  68  side 2    Res =  0.1919E+01
 MRCHDU: Convergence failed at  69  side 2    Res =  0.3745E+01
 Side 1  free  transition at x/c =  0.1374   52
 Side 2  free  transition at x/c =  0.3884   36

   3   rms: 0.1515E+01   max: -.3969E+01   D at   85  2   RLX: 0.126
       a = 11.000      CL =  1.7648
      Cm = -0.1903     CD =  0.06805   =>   CDf =  0.00767    CDp =  0.06038

 Side 1  free  transition at x/c =  0.1424   51
 Side 2  free  transition at x/c =  0.3907   38

   4   rms: 0.2875E+01   max: -.6183E+01   D at   71  2   RLX: 0.071
       a = 11.000      CL =  1.5036
      Cm = -0.1622     CD =  0.06809   =>   CDf =  0.00745    CDp =  0.06064

 Side 1  free  transition at x/c =  0.1504   50
 Side 2  free  transition at x/c =  0.3779   39

   5   rms: 0.3177E+01   max: -.1166E+02   D at   72  2   RLX: 0.043
       a = 11.000      CL =  1.3462
      Cm = -0.1414     CD =  0.06971   =>   CDf =  0.00672    CDp =  0.06299

 Side 1  free  transition at x/c =  0.1544   50
 Side 2  free  transition at x/c =  0.3812   40

   6   rms: 0.2105E+01   max: -.1060E+02   D at   73  2   RLX: 0.047
       a = 11.000      CL =  1.2690
      Cm = -0.1354     CD =  0.05312   =>   CDf =  0.00670    CDp =  0.04642

 Side 1  free  transition at x/c =  0.1569   49
 Side 2  free  transition at x/c =  0.3833   41

   7   rms: 0.1196E+01   max: -.7346E+01   D at   74  2   RLX: 0.068
       a = 11.000      CL =  1.2549
      Cm = -0.1329     CD =  0.04595   =>   CDf =  0.00642    CDp =  0.03953

 Side 1  free  transition at x/c =  0.1571   49
 Side 2  free  transition at x/c =  0.3874   41

   8   rms: 0.1030E+01   max: -.6066E+01   D at   74  2   RLX: 0.082
       a = 11.000      CL =  1.2810
      Cm = -0.1353     CD =  0.04046   =>   CDf =  0.00649    CDp =  0.03396

 Side 1  free  transition at x/c =  0.1563   49
 Side 2  free  transition at x/c =  0.3953   42

   9   rms: 0.6746E+00   max: -.3930E+01   D at   74  2   RLX: 0.127
       a = 11.000      CL =  1.3486
      Cm = -0.1403     CD =  0.03706   =>   CDf =  0.00654    CDp =  0.03052

 Side 1  free  transition at x/c =  0.1543   50
 Side 2  free  transition at x/c =  0.3987   41

  10   rms: 0.6302E+00   max: -.2651E+01   D at   73  2   RLX: 0.189
       a = 11.000      CL =  1.4817
      Cm = -0.1510     CD =  0.03652   =>   CDf =  0.00680    CDp =  0.02971

 Side 1  free  transition at x/c =  0.1507   50
 Side 2  free  transition at x/c =  0.4053   40

  11   rms: 0.5908E+00   max: 0.5846E+01   T at    2  1   RLX: 0.181
       a = 11.000      CL =  1.5754
      Cm = -0.1615     CD =  0.03684   =>   CDf =  0.00720    CDp =  0.02963

 Side 1  free  transition at x/c =  0.1479   50
 Side 2  free  transition at x/c =  0.4096   40

  12   rms: 0.4163E+00   max: -.1687E+01   D at   72  2   RLX: 0.296
       a = 11.000      CL =  1.6991
      Cm = -0.1731     CD =  0.03817   =>   CDf =  0.00716    CDp =  0.03100

 Side 1  free  transition at x/c =  0.1442   51
 Side 2  free  transition at x/c =  0.4155   39

  13   rms: 0.3515E+00   max: -.1223E+01   D at   45  2   RLX: 0.409
       a = 11.000      CL =  1.8268
      Cm = -0.1853     CD =  0.04139   =>   CDf =  0.00750    CDp =  0.03389

 MRCHDU: Convergence failed at  39  side 2    Res =  0.5889E+01
 MRCHDU: Convergence failed at  40  side 2    Res =  0.6153E+01
 MRCHDU: Convergence failed at  41  side 2    Res =  0.1024E+02
 MRCHDU: Convergence failed at  42  side 2    Res =  0.1348E+02
 MRCHDU: Convergence failed at  43  side 2    Res =  0.3629E+02
 MRCHDU: Convergence failed at  44  side 2    Res =  0.1025E+03
 MRCHDU: Convergence failed at  45  side 2    Res =  0.1051E+03
 MRCHDU: Convergence failed at  46  side 2    Res =  0.9596E+02
 MRCHDU: Convergence failed at  47  side 2    Res =  0.8753E+02
 MRCHDU: Convergence failed at  48  side 2    Res =  0.7185E+02
 MRCHDU: Convergence failed at  49  side 2    Res =  0.5323E+02
 MRCHDU: Convergence failed at  50  side 2    Res =  0.5510E+02
 MRCHDU: Convergence failed at  51  side 2    Res =  0.5229E+02
 MRCHDU: Convergence failed at  52  side 2    Res =  0.4174E+02
 MRCHDU: Convergence failed at  53  side 2    Res =  0.5495E+02
 MRCHDU: Convergence failed at  54  side 2    Res =  0.7177E+02
 MRCHDU: Convergence failed at  55  side 2    Res =  0.7375E+02
 MRCHDU: Convergence failed at  56  side 2    Res =  0.2074E+04
 MRCHDU: Convergence failed at  57  side 2    Res =  0.1178E+03
 MRCHDU: Convergence failed at  58  side 2    Res =  0.1229E+04
 MRCHDU: Convergence failed at  59  side 2    Res =  0.1329E+03
 MRCHDU: Convergence failed at  60  side 2    Res =  0.7577E+02
 MRCHDU: Convergence failed at  61  side 2    Res =  0.5537E+02
 MRCHDU: Convergence failed at  62  side 2    Res =  0.4765E+02
 MRCHDU: Convergence failed at  63  side 2    Res =  0.2098E+02
 MRCHDU: Convergence failed at  64  side 2    Res =  0.3086E+02
 MRCHDU: Convergence failed at  65  side 2    Res =  0.2170E+02
 MRCHDU: Convergence failed at  66  side 2    Res =  0.4271E+01
 Side 1  free  transition at x/c =  0.1415   51
 Side 2  free  transition at x/c =  0.4306   39

  14   rms: 0.3724E+00   max: 0.1590E+01   C at   39  2   RLX: 0.319
       a = 11.000      CL =  1.8096
      Cm = -0.1600     CD =  0.04428   =>   CDf =  0.00738    CDp =  0.03691

 Side 1  free  transition at x/c =  0.1401   51
 Side 2  free  transition at x/c =  0.4184   39

  15   rms: 0.1651E+00   max: 0.6482E+00   D at   42  2   RLX: 0.890
       a = 11.000      CL =  1.9567
      Cm = -0.1938     CD =  0.04774   =>   CDf =  0.00849    CDp =  0.03925

 Side 1  free  transition at x/c =  0.1374   52
 Side 2  free  transition at x/c =  0.4152   37

  16   rms: 0.3396E-01   max: 0.2570E+00   D at   40  2
       a = 11.000      CL =  1.9777
      Cm = -0.1977     CD =  0.04786   =>   CDf =  0.00832    CDp =  0.03954

 Side 1  free  transition at x/c =  0.1370   52
 Side 2  free  transition at x/c =  0.4109   37

  17   rms: 0.2380E-02   max: -.1851E-01   D at   40  2
       a = 11.000      CL =  1.9777
      Cm = -0.1977     CD =  0.04789   =>   CDf =  0.00827    CDp =  0.03962

 Side 1  free  transition at x/c =  0.1370   52
 Side 2  free  transition at x/c =  0.4104   37

  18   rms: 0.1797E-04   max: -.3173E-03   D at   40  2
       a = 11.000      CL =  1.9777
      Cm = -0.1977     CD =  0.04789   =>   CDf =  0.00827    CDp =  0.03962

 Point added to stored polar  1
 Point written to save file  000096M0.1.log                                  
 Dump file unspecified or not available
 Calculating wake trajectory ...
 Calculating source influence matrix ...

 Solving BL system ...

 Side 1  free  transition at x/c =  0.1370   52
 Side 2  free  transition at x/c =  0.4104   37

   1   rms: 0.1156E+00   max: -.6118E+00   T at   37  2   RLX: 0.701
       a = 12.000      CL =  2.0227
      Cm = -0.1928     CD =  0.05093   =>   CDf =  0.00796    CDp =  0.04297

 Side 1  free  transition at x/c =  0.1336   53
 Side 2  free  transition at x/c =  0.4282   37

   2   rms: 0.5060E-01   max: 0.4956E+00   D at   37  2
       a = 12.000      CL =  2.0387
      Cm = -0.1904     CD =  0.05220   =>   CDf =  0.00817    CDp =  0.04404

 Side 1  free  transition at x/c =  0.1327   53
 Side 2  free  transition at x/c =  0.4305   37

   3   rms: 0.3483E-02   max: 0.2868E-01   D at   38  2
       a = 12.000      CL =  2.0404
      Cm = -0.1906     CD =  0.05210   =>   CDf =  0.00814    CDp =  0.04397

 Side 1  free  transition at x/c =  0.1327   53
 Side 2  free  transition at x/c =  0.4306   37

   4   rms: 0.2300E-03   max: 0.1380E-02   D at   38  2
       a = 12.000      CL =  2.0406
      Cm = -0.1907     CD =  0.05211   =>   CDf =  0.00815    CDp =  0.04396

 Side 1  free  transition at x/c =  0.1326   53
 Side 2  free  transition at x/c =  0.4306   37

   5   rms: 0.4360E-05   max: -.3065E-04   D at   82  2
       a = 12.000      CL =  2.0406
      Cm = -0.1907     CD =  0.05211   =>   CDf =  0.00815    CDp =  0.04396

 Point added to stored polar  1
 Point written to save file  000096M0.1.log                                  
 Dump file unspecified or not available
 Calculating wake trajectory ...
 Calculating source influence matrix ...

 Solving BL system ...

 Side 1  free  transition at x/c =  0.1326   53
 Side 2  free  transition at x/c =  0.4306   37

   1   rms: 0.1183E+00   max: -.6453E+00   T at   37  2   RLX: 0.657
       a = 13.000      CL =  2.0880
      Cm = -0.1869     CD =  0.05488   =>   CDf =  0.00782    CDp =  0.04707

 Side 1  free  transition at x/c =  0.1302   53
 Side 2  free  transition at x/c =  0.4447   37

   2   rms: 0.3624E-01   max: -.1931E+00   T at   37  2
       a = 13.000      CL =  2.0868
      Cm = -0.1825     CD =  0.05811   =>   CDf =  0.00805    CDp =  0.05005

 Side 1  free  transition at x/c =  0.1286   53
 Side 2  free  transition at x/c =  0.4502   37

   3   rms: 0.6035E-02   max: -.4643E-01   D at   37  2
       a = 13.000      CL =  2.0875
      Cm = -0.1826     CD =  0.05806   =>   CDf =  0.00776    CDp =  0.05030

 Side 1  free  transition at x/c =  0.1284   53
 Side 2  free  transition at x/c =  0.4505   37

   4   rms: 0.2403E-03   max: 0.1029E-02   D at   87  1
       a = 13.000      CL =  2.0873
      Cm = -0.1826     CD =  0.05808   =>   CDf =  0.00776    CDp =  0.05032

 Side 1  free  transition at x/c =  0.1284   53
 Side 2  free  transition at x/c =  0.4505   37

   5   rms: 0.6538E-05   max: -.6858E-04   D at   38  2
       a = 13.000      CL =  2.0873
      Cm = -0.1826     CD =  0.05808   =>   CDf =  0.00776    CDp =  0.05032

 Point added to stored polar  1
 Point written to save file  000096M0.1.log                                  
 Dump file unspecified or not available
 Calculating wake trajectory ...
 Calculating source influence matrix ...

 Solving BL system ...

 Side 1  free  transition at x/c =  0.1284   53
 Side 2  free  transition at x/c =  0.4505   37

   1   rms: 0.1052E+00   max: -.5541E+00   T at   37  2   RLX: 0.571
       a = 14.000      CL =  2.1040
      Cm = -0.1773     CD =  0.06225   =>   CDf =  0.00742    CDp =  0.05483

 Side 1  free  transition at x/c =  0.1261   54
 Side 2  free  transition at x/c =  0.4612   36

   2   rms: 0.5549E-01   max: -.4269E+00   T at   36  2
       a = 14.000      CL =  2.1145
      Cm = -0.1735     CD =  0.06541   =>   CDf =  0.00748    CDp =  0.05794

 MRCHDU: Convergence failed at  37  side 2    Res =  0.7292E+01
 MRCHDU: Convergence failed at  38  side 2    Res =  0.2942E+02
 MRCHDU: Convergence failed at  39  side 2    Res =  0.9634E+01
 MRCHDU: Convergence failed at  40  side 2    Res =  0.6050E+01
 MRCHDU: Convergence failed at  41  side 2    Res =  0.1195E+02
 MRCHDU: Convergence failed at  42  side 2    Res =  0.1683E+02
 MRCHDU: Convergence failed at  43  side 2    Res =  0.2202E+02
 MRCHDU: Convergence failed at  44  side 2    Res =  0.2774E+02
 MRCHDU: Convergence failed at  45  side 2    Res =  0.3394E+02
 MRCHDU: Convergence failed at  46  side 2    Res =  0.3972E+02
 MRCHDU: Convergence failed at  47  side 2    Res =  0.4581E+02
 MRCHDU: Convergence failed at  48  side 2    Res =  0.5310E+02
 MRCHDU: Convergence failed at  49  side 2    Res =  0.6040E+02
 MRCHDU: Convergence failed at  50  side 2    Res =  0.6618E+02
 MRCHDU: Convergence failed at  51  side 2    Res =  0.7054E+02
 MRCHDU: Convergence failed at  52  side 2    Res =  0.6233E+02
 MRCHDU: Convergence failed at  53  side 2    Res =  0.4470E+02
 MRCHDU: Convergence failed at  54  side 2    Res =  0.2674E+02
 MRCHDU: Convergence failed at  55  side 2    Res =  0.1287E+02
 MRCHDU: Convergence failed at  56  side 2    Res =  0.6688E+01
 MRCHDU: Convergence failed at  57  side 2    Res =  0.3494E+01
 Side 1  free  transition at x/c =  0.1246   54
 Side 2  free  transition at x/c =  0.4761   37

   3   rms: 0.2541E+00   max: 0.1546E+01   C at   37  2   RLX: 0.626
       a = 14.000      CL =  2.1012
      Cm = -0.1677     CD =  0.06483   =>   CDf =  0.00675    CDp =  0.05808

 Side 1  free  transition at x/c =  0.1246   54
 Side 2  free  transition at x/c =  0.4632   37

   4   rms: 0.7438E-01   max: -.7006E+00   D at   40  2   RLX: 0.714
       a = 14.000      CL =  2.1110
      Cm = -0.1721     CD =  0.06523   =>   CDf =  0.00743    CDp =  0.05780

 Side 1  free  transition at x/c =  0.1247   54
 Side 2  free  transition at x/c =  0.4670   37

   5   rms: 0.4037E-01   max: -.4845E+00   D at   40  2
       a = 14.000      CL =  2.1153
      Cm = -0.1737     CD =  0.06508   =>   CDf =  0.00731    CDp =  0.05777

 Side 1  free  transition at x/c =  0.1247   54
 Side 2  free  transition at x/c =  0.4714   37

   6   rms: 0.6568E-02   max: -.1421E+00   D at   40  2
       a = 14.000      CL =  2.1156
      Cm = -0.1738     CD =  0.06510   =>   CDf =  0.00731    CDp =  0.05779

 Side 1  free  transition at x/c =  0.1246   54
 Side 2  free  transition at x/c =  0.4710   37

   7   rms: 0.6818E-03   max: -.1613E-01   D at   40  2
       a = 14.000      CL =  2.1156
      Cm = -0.1738     CD =  0.06510   =>   CDf =  0.00731    CDp =  0.05779

 Side 1  free  transition at x/c =  0.1246   54
 Side 2  free  transition at x/c =  0.4709   37

   8   rms: 0.8994E-05   max: -.1988E-03   D at   40  2
       a = 14.000      CL =  2.1156
      Cm = -0.1738     CD =  0.06510   =>   CDf =  0.00731    CDp =  0.05779

 Point added to stored polar  1
 Point written to save file  000096M0.1.log                                  
 Dump file unspecified or not available
 Calculating wake trajectory ...
 Calculating source influence matrix ...

 Solving BL system ...

 Side 1  free  transition at x/c =  0.1246   54
 Side 2  free  transition at x/c =  0.4709   37

   1   rms: 0.1028E+00   max: -.5456E+00   T at   37  2   RLX: 0.520
       a = 15.000      CL =  2.1319
      Cm = -0.1697     CD =  0.06890   =>   CDf =  0.00696    CDp =  0.06194

 Side 1  free  transition at x/c =  0.1228   55
 Side 2  free  transition at x/c =  0.4810   36

   2   rms: 0.6297E-01   max: -.4496E+00   T at   36  2
       a = 15.000      CL =  2.1545
      Cm = -0.1668     CD =  0.07149   =>   CDf =  0.00721    CDp =  0.06428

 MRCHDU: Convergence failed at  38  side 2    Res =  0.6877E+01
 MRCHDU: Convergence failed at  39  side 2    Res =  0.2707E+02
 MRCHDU: Convergence failed at  40  side 2    Res =  0.1319E+02
 MRCHDU: Convergence failed at  41  side 2    Res =  0.1263E+02
 MRCHDU: Convergence failed at  42  side 2    Res =  0.1478E+02
 MRCHDU: Convergence failed at  43  side 2    Res =  0.1696E+02
 MRCHDU: Convergence failed at  44  side 2    Res =  0.1907E+02
 MRCHDU: Convergence failed at  45  side 2    Res =  0.5042E+01
 MRCHDU: Convergence failed at  46  side 2    Res =  0.5144E+01
 MRCHDU: Convergence failed at  47  side 2    Res =  0.5205E+01
 MRCHDU: Convergence failed at  48  side 2    Res =  0.4995E+01
 MRCHDU: Convergence failed at  49  side 2    Res =  0.4630E+01
 MRCHDU: Convergence failed at  50  side 2    Res =  0.1457E+02
 MRCHDU: Convergence failed at  51  side 2    Res =  0.1271E+02
 MRCHDU: Convergence failed at  52  side 2    Res =  0.1150E+02
 MRCHDU: Convergence failed at  53  side 2    Res =  0.1253E+02
 MRCHDU: Convergence failed at  54  side 2    Res =  0.1800E+02
 Side 1  free  transition at x/c =  0.1214   55
 Side 2  free  transition at x/c =  0.5006   37

   3   rms: 0.1379E+00   max: 0.1439E+01   T at   37  2   RLX: 0.627
       a = 15.000      CL =  2.1435
      Cm = -0.1621     CD =  0.07122   =>   CDf =  0.00680    CDp =  0.06442

 Side 1  free  transition at x/c =  0.1213   55
 Side 2  free  transition at x/c =  0.4751   36

   4   rms: 0.1841E+00   max: -.1037E+01   D at   52  2   RLX: 0.482
       a = 15.000      CL =  2.1636
      Cm = -0.1683     CD =  0.07158   =>   CDf =  0.00677    CDp =  0.06481

 Side 1  free  transition at x/c =  0.1212   55
 Side 2  free  transition at x/c =  0.4917   37

   5   rms: 0.1752E+00   max: -.1183E+01   D at   52  2   RLX: 0.423
       a = 15.000      CL =  2.1668
      Cm = -0.1688     CD =  0.07141   =>   CDf =  0.00694    CDp =  0.06447

 Side 1  free  transition at x/c =  0.1211   55
 Side 2  free  transition at x/c =  0.4980   37

   6   rms: 0.1872E+00   max: -.1415E+01   D at   50  2   RLX: 0.353
       a = 15.000      CL =  2.1688
      Cm = -0.1689     CD =  0.07146   =>   CDf =  0.00704    CDp =  0.06442

 MRCHDU: Convergence failed at  48  side 2    Res =  0.7540E+00
 MRCHDU: Convergence failed at  49  side 2    Res =  0.8245E+01
 MRCHDU: Convergence failed at  50  side 2    Res =  0.9947E+00
 MRCHDU: Convergence failed at  51  side 2    Res =  0.4642E+00
 Side 1  free  transition at x/c =  0.1210   55
 Side 2  free  transition at x/c =  0.5031   37

   7   rms: 0.9160E-01   max: -.7414E+00   D at   45  2   RLX: 0.674
       a = 15.000      CL =  2.1599
      Cm = -0.1660     CD =  0.07138   =>   CDf =  0.00735    CDp =  0.06403

 Side 1  free  transition at x/c =  0.1211   55
 Side 2  free  transition at x/c =  0.5009   37

   8   rms: 0.3925E-01   max: -.3758E+00   D at   45  2
       a = 15.000      CL =  2.1592
      Cm = -0.1672     CD =  0.07128   =>   CDf =  0.00725    CDp =  0.06403

 Side 1  free  transition at x/c =  0.1212   55
 Side 2  free  transition at x/c =  0.4946   37

   9   rms: 0.3950E-02   max: -.6304E-01   D at   45 Got result {'DD': 0.02508, 'Dmin': 0.0253, 'LL': -1.1534}
Completed successfully in 2.21 seconds. [{'DD': 0.02508, 'Dmin': 0.0253, 'LL': -1.1534}]
 2
       a = 15.000      CL =  2.1590
      Cm = -0.1672     CD =  0.07129   =>   CDf =  0.00723    CDp =  0.06406

 Side 1  free  transition at x/c =  0.1212   55
 Side 2  free  transition at x/c =  0.4945   37

  10   rms: 0.7729E-04   max: -.1329E-02   D at   45  2
       a = 15.000      CL =  2.1590
      Cm = -0.1672     CD =  0.07129   =>   CDf =  0.00723    CDp =  0.06406

 Point added to stored polar  1
 Point written to save file  000096M0.1.log                                  
 Dump file unspecified or not available

.OPERva   c>  
 XFOIL   c>  
