Job launching after 0.30 seconds in submission.
Running python job.
Changed into dir /home/simonx/Documents/Udacity/Projects/capstone/PESM_NSGA2_CST_XFoil
Importing evaluationFunctionXFoil.py
Running evaluationFunctionXFoil.main()
0
1
2
0.04
resp: 
 ===================================================
  XFOIL Version 6.97
  Copyright (C) 2000   Mark Drela, Harold Youngren

  This software comes with ABSOLUTELY NO WARRANTY,
    subject to the GNU General Public License.

  Caveat computor
 ===================================================

 File  xfoil.def  not found

   QUIT    Exit program

  .OPER    Direct operating point(s)
  .MDES    Complex mapping design routine
  .QDES    Surface speed design routine
  .GDES    Geometry design routine

   SAVE f  Write airfoil to labeled coordinate file
   PSAV f  Write airfoil to plain coordinate file
   ISAV f  Write airfoil to ISES coordinate file
   MSAV f  Write airfoil to MSES coordinate file
   REVE    Reverse written-airfoil node ordering
   DELI i  Change written-airfoil file delimiters

   LOAD f  Read buffer airfoil from coordinate file
   NACA i  Set NACA 4,5-digit airfoil and buffer airfoil
   INTE    Set buffer airfoil by interpolating two airfoils
   NORM    Buffer airfoil normalization toggle
   HALF    Halve the number of points in buffer airfoil
   XYCM rr Change CM reference location, currently  0.25000 0.00000

   BEND    Display structural properties of current airfoil

   PCOP    Set current-airfoil panel nodes directly from buffer airfoil points
   PANE    Set current-airfoil panel nodes ( 160 ) based on curvature
  .PPAR    Show/change paneling

  .PLOP    Plotting options

   WDEF f  Write  current-settings file
   RDEF f  Reread current-settings file
   NAME s  Specify new airfoil name
   NINC    Increment name version number

   Z       Zoom    | (available in all menus)
   U       Unzoom  | 

 XFOIL   c>   ...............................................

  G raphics-enable flag:        T
  S ize of plot object          10.00"
  A spect ratio of plot object   0.5500
  P age dimensions              11.00 x  8.50"
  M argins from page edges       0.00",  0.00"
  F ont size (relative)          0.0150
  W indow/screen size fraction   0.8000
  B lowup input method:        Cursor    
  O rientation of plot:        Landscape 
  C olor PostScript output?     F

      Option, Value   (or <Return>)    c>   ...............................................

  G raphics-enable flag:        F
  S ize of plot object          10.00"
  A spect ratio of plot object   0.5500
  P age dimensions              11.00 x  8.50"
  M argins from page edges       0.00",  0.00"
  F ont size (relative)          0.0150
  W indow/screen size fraction   0.8000
  B lowup input method:        Cursor    
  O rientation of plot:        Landscape 
  C olor PostScript output?     F

      Option, Value   (or <Return>)    c>  
 XFOIL   c>  
 Labeled airfoil file.  Name:  000127                                          

 Number of input coordinate points: 200
 Clockwise ordering
 Max thickness =     0.174983  at x =   0.194
 Max camber    =     0.088951  at x =   0.500

  LE  x,y  =  -0.00000  -0.00056  |   Chord =   0.99988
  TE  x,y  =   0.99988   0.00004  |

 Current airfoil nodes set from buffer airfoil nodes ( 200 )

 XFOIL   c>  
 You are working with the buffer airfoil

.GDES   c>  
  i       x        y      angle
   2   0.9990   0.0003   -0.016
   3   0.9978   0.0006   -0.099
   4   0.9961   0.0011   -0.076
   5   0.9938   0.0018   -0.118
   6   0.9911   0.0025   -0.103
   7   0.9880   0.0035   -0.159
   8   0.9843   0.0046   -0.151
   9   0.9801   0.0058   -0.171
  10   0.9755   0.0072   -0.185
  11   0.9704   0.0087   -0.187
  12   0.9649   0.0104   -0.198
  13   0.9589   0.0123   -0.203
  14   0.9524   0.0143   -0.209
  15   0.9455   0.0165   -0.196
  16   0.9382   0.0189   -0.209
  17   0.9304   0.0215   -0.189
  18   0.9222   0.0242   -0.179
  19   0.9135   0.0271   -0.174
  20   0.9045   0.0301   -0.161
  21   0.8951   0.0333   -0.139
  22   0.8853   0.0367   -0.113
  23   0.8751   0.0402   -0.100
  24   0.8645   0.0439   -0.071
  25   0.8536   0.0477   -0.047
  26   0.8423   0.0517   -0.010
  27   0.8307   0.0558    0.022
  28   0.8187   0.0599    0.045
  29   0.8065   0.0642    0.097
  30   0.7939   0.0686    0.126
  31   0.7810   0.0730    0.167
  32   0.7679   0.0775    0.206
  33   0.7545   0.0820    0.257
  34   0.7409   0.0865    0.294
  35   0.7270   0.0911    0.345
  36   0.7129   0.0956    0.388
  37   0.6986   0.1001    0.437
  38   0.6841   0.1045    0.487
  39   0.6694   0.1088    0.532
  40   0.6545   0.1130    0.581
  41   0.6395   0.1172    0.632
  42   0.6243   0.1211    0.679
  43   0.6091   0.1249    0.728
  44   0.5937   0.1286    0.774
  45   0.5782   0.1320    0.824
  46   0.5627   0.1352    0.861
  47   0.5471   0.1382    0.913
  48   0.5314   0.1409    0.947
  49   0.5157   0.1434    0.994
  50   0.5000   0.1456    1.022
  51   0.4843   0.1475    1.057
  52   0.4686   0.1491    1.095
  53   0.4529   0.1505    1.114
  54   0.4373   0.1515    1.139
  55   0.4218   0.1522    1.164
  56   0.4063   0.1525    1.176
  57   0.3909   0.1526    1.188
  58   0.3757   0.1523    1.198
  59   0.3605   0.1517    1.204
  60   0.3455   0.1509    1.204
  61   0.3306   0.1497    1.197
  62   0.3159   0.1482    1.198
  63   0.3014   0.1464    1.188
  64   0.2871   0.1443    1.176
  65   0.2730   0.1420    1.160
  66   0.2591   0.1394    1.149
  67   0.2455   0.1366    1.128
  68   0.2321   0.1336    1.110
  69   0.2190   0.1303    1.099
  70   0.2061   0.1269    1.074
  71   0.1935   0.1233    1.061
  72   0.1813   0.1195    1.044
  73   0.1693   0.1156    1.031
  74   0.1577   0.1115    1.022
  75   0.1464   0.1074    1.014
  76   0.1355   0.1031    1.012
  77   0.1249   0.0988    1.026
  78   0.1147   0.0944    1.028
  79   0.1049   0.0900    1.049
  80   0.0955   0.0855    1.081
  81   0.0865   0.0810    1.117
  82   0.0778   0.0765    1.181
  83   0.0696   0.0720    1.242
  84   0.0618   0.0675    1.334
  85   0.0545   0.0631    1.436
  86   0.0476   0.0586    1.589
  87   0.0411   0.0542    1.742
  88   0.0351   0.0498    1.942
  89   0.0296   0.0455    2.194
  90   0.0245   0.0412    2.476
  91   0.0199   0.0369    2.829
  92   0.0157   0.0327    3.248
  93   0.0120   0.0285    3.691
  94   0.0089   0.0244    4.270
  95   0.0062   0.0203    4.830
  96   0.0039   0.0162    5.443
  97   0.0022   0.0121    6.058
  98   0.0010   0.0081    6.539
  99   0.0002   0.0040    6.889
 100   0.0000   0.0000    5.945
 101   0.0002  -0.0058    4.874
 102   0.0010  -0.0116    4.909
 103   0.0022  -0.0173    4.978
 104   0.0039  -0.0228    5.034
 105   0.0062  -0.0283    5.121
 106   0.0089  -0.0335    5.202
 107   0.0120  -0.0385    5.237
 108   0.0157  -0.0432    5.288
 109   0.0199  -0.0476    5.253
 110   0.0245  -0.0517    5.206
 111   0.0296  -0.0555    5.086
 112   0.0351  -0.0589    4.923
 113   0.0411  -0.0619    4.700
 114   0.0476  -0.0645    4.458
 115   0.0545  -0.0666    4.169
 116   0.0618  -0.0683    3.879
 117   0.0696  -0.0696    3.562
 118   0.0778  -0.0704    3.261
 119   0.0865  -0.0708    2.956
 120   0.0955  -0.0707    2.666
 121   0.1049  -0.0702    2.390
 122   0.1147  -0.0692    2.127
 123   0.1249  -0.0678    1.889
 124   0.1355  -0.0660    1.654
 125   0.1464  -0.0639    1.442
 126   0.1577  -0.0613    1.245
 127   0.1693  -0.0584    1.062
 128   0.1813  -0.0552    0.889
 129   0.1935  -0.0517    0.722
 130   0.2061  -0.0480    0.577
 131   0.2190  -0.0440    0.433
 132   0.2321  -0.0398    0.300
 133   0.2455  -0.0355    0.173
 134   0.2591  -0.0310    0.053
 135   0.2730  -0.0265   -0.052
 136   0.2871  -0.0219   -0.166
 137   0.3014  -0.0172   -0.263
 138   0.3159  -0.0126   -0.354
 139   0.3306  -0.0080   -0.449
 140   0.3455  -0.0035   -0.528
 141   0.3605   0.0009   -0.607
 142   0.3757   0.0051   -0.681
 143   0.3909   0.0092   -0.743
 144   0.4063   0.0132   -0.805
 145   0.4218   0.0169   -0.861
 146   0.4373   0.0204   -0.905
 147   0.4529   0.0236   -0.952
 148   0.4686   0.0266   -0.979
 149   0.4843   0.0293   -1.011
 150   0.5000   0.0318   -1.025
 151   0.5157   0.0339   -1.046
 152   0.5314   0.0357   -1.046
 153   0.5471   0.0373   -1.046
 154   0.5627   0.0386   -1.037
 155   0.5782   0.0395   -1.020
 156   0.5937   0.0402   -1.004
 157   0.6091   0.0407   -0.975
 158   0.6243   0.0408   -0.941
 159   0.6395   0.0407   -0.904
 160   0.6545   0.0404   -0.860
 161   0.6694   0.0399   -0.818
 162   0.6841   0.0391   -0.764
 163   0.6986   0.0382   -0.715
 164   0.7129   0.0371   -0.659
 165   0.7270   0.0358   -0.604
 166   0.7409   0.0345   -0.547
 167   0.7545   0.0330   -0.492
 168   0.7679   0.0314   -0.425
 169   0.7810   0.0298   -0.376
 170   0.7939   0.0281   -0.319
 171   0.8065   0.0263   -0.260
 172   0.8187   0.0246   -0.210
 173   0.8307   0.0229   -0.152
 174   0.8423   0.0211   -0.106
 175   0.8536   0.0194   -0.058
 176   0.8645   0.0178   -0.018
 177   0.8751   0.0162    0.037
 178   0.8853   0.0146    0.060
 179   0.8951   0.0132    0.097
 180   0.9045   0.0118    0.143
 181   0.9135   0.0104    0.153
 182   0.9222   0.0092    0.181
 183   0.9304   0.0081    0.207
 184   0.9382   0.0070    0.208
 185   0.9455   0.0060    0.235
 186   0.9524   0.0051    0.232
 187   0.9589   0.0043    0.243
 188   0.9649   0.0036    0.234
 189   0.9704   0.0030    0.226
 190   0.9755   0.0024    0.241
 191   0.9801   0.0019    0.193
 192   0.9843   0.0015    0.204
 193   0.9880   0.0011    0.175
 194   0.9911   0.0008    0.162
 195   0.9938   0.0006    0.154
 196   0.9961   0.0004    0.071
 197   0.9978   0.0002    0.115
 198   0.9990   0.0001    0.036
 199   0.9998   0.0000    0.160

 Maximum panel corner angle =  6.889   at  i,x,y  =  99   0.0002   0.0040

 Enter corner angle criterion for refinement (deg):   3.445
 Enter type of spline parameter (1=uniform, 2=arclength):   1
 Enter refinement x limits:  -0.10000   1.10000
 Number of points added:           50
 Max thickness =     0.175011  at x =   0.194
 Max camber    =     0.088672  at x =   0.500

 Maximum panel corner angle =  2.956   at  i,x,y  = 169   0.0865  -0.0708

.GDES   c>  
 Buffer airfoil is not identical to current airfoil

 XFOIL   c>  
 Blunt trailing edge.  Gap =  0.00026

 Paneling parameters used...
   Number of panel nodes       160
   Panel bunching parameter    1.000
   TE/LE panel density ratio   0.150
   Refined-area/LE panel density ratio    0.200
   Top    side refined area x/c limits  1.000 1.000
   Bottom side refined area x/c limits  1.000 1.000

 XFOIL   c>  
Enter output filename   s>  
 XFOIL   c>  
.OPERi   c>   Current iteration limit:          20

Enter new iteration limit   i>  
Enter new iteration limit   i>  
Enter new iteration limit   i>  
.OPERi   c>  
 M  =    0.0000
 Re =  0.3000E+06

.OPERv   c>  
 Sonic Cp =   -420.65      Sonic Q/Qinf =    22.825


.OPERv   c>  
 Polar  1 newly created for accumulation
 Airfoil archived with polar: 000127                                          

Enter  polar save filename  OR  <return> for no file   s>  
 New polar save file available

Enter  polar dump filename  OR  <return> for no file   s>  
 Polar dump file will NOT be written

 Polar accumulation enabled

.OPERva   c>   Calculating unit vorticity distributions ...
 Calculating wake trajectory ...
 Calculating source influence matrix ...

 Solving BL system ...

 Initializing BL ...
    side            1  ...
 MRCHUE: Inverse mode at  58     Hk =   3.959
 MRCHUE: Inverse mode at  59     Hk =   4.755
 MRCHUE: Inverse mode at  60     Hk =   5.536
 MRCHUE: Inverse mode at  61     Hk =   6.309
 MRCHUE: Inverse mode at  62     Hk =   7.079
 MRCHUE: Inverse mode at  63     Hk =   7.848
 MRCHUE: Inverse mode at  64     Hk =   8.620
 MRCHUE: Inverse mode at  65     Hk =   9.398
 MRCHUE: Inverse mode at  66     Hk =   6.793
 MRCHUE: Inverse mode at  67     Hk =   4.357
 MRCHUE: Inverse mode at  68     Hk =   2.817
 MRCHUE: Convergence failed at  84  side 1    Res =  0.4880E+02
    side            2  ...
 MRCHUE: Inverse mode at  31     Hk =   4.004
 MRCHUE: Inverse mode at  32     Hk =   4.728
 MRCHUE: Inverse mode at  33     Hk =   5.463
 MRCHUE: Inverse mode at  34     Hk =   6.218
 MRCHUE: Inverse mode at  35     Hk =   7.002
 MRCHUE: Inverse mode at  36     Hk =   7.826
 MRCHUE: Inverse mode at  37     Hk =   8.696
 MRCHUE: Inverse mode at  38     Hk =   9.620
 MRCHUE: Inverse mode at  39     Hk =   6.198
 MRCHUE: Inverse mode at  40     Hk =   3.297
 MRCHUE: Inverse mode at  41     Hk =   2.500
 MRCHUE: Inverse mode at  42     Hk =   2.500
 MRCHUE: Inverse mode at  43     Hk =   2.500
 MRCHUE: Inverse mode at  46     Hk =   2.500
 MRCHUE: Inverse mode at  47     Hk =   2.500
 MRCHUE: Inverse mode at  48     Hk =   2.500
 MRCHUE: Inverse mode at  49     Hk =   2.500
 MRCHUE: Inverse mode at  50     Hk =   2.500
 MRCHUE: Inverse mode at  51     Hk =   2.500
 MRCHUE: Inverse mode at  52     Hk =   2.500
 MRCHUE: Inverse mode at  53     Hk =   2.500
 MRCHUE: Inverse mode at  54     Hk =   2.500
 MRCHUE: Inverse mode at  55     Hk =   2.500
 MRCHUE: Convergence failed at  78  side 2    Res =  0.1060E+01

 MRCHDU: Convergence failed at  84  side 1    Res =  0.2863E+02
 Side 1  free  transition at x/c =  0.6142   66
 Side 2  free  transition at x/c =  0.2134   39

   1   rms: 0.5600E+00   max: -.1909E+01   D at   49  2   RLX: 0.262
       a =  2.000      CL =  1.1220
      Cm = -0.2326     CD =  0.00822   =>   CDf =  0.00645    CDp =  0.00176

 Side 1  free  transition at x/c =  0.6153   66
 Side 2  free  transition at x/c =  0.2113   39

   2   rms: 0.3380E+00   max: -.1226E+01   D at   53  2   RLX: 0.408
       a =  2.000      CL =  1.0853
      Cm = -0.2237     CD =  0.01137   =>   CDf =  0.00672    CDp =  0.00464

 Side 1  free  transition at x/c =  0.6162   66
 Side 2  free  transition at x/c =  0.2072   38

   3   rms: 0.1590E+00   max: 0.1019E+01   T at   38  2   RLX: 0.747
       a =  2.000      CL =  1.0600
      Cm = -0.2158     CD =  0.01630   =>   CDf =  0.00686    CDp =  0.00944

 Side 1  free  transition at x/c =  0.6164   66
 Side 2  free  transition at x/c =  0.1955   38

   4   rms: 0.6495E-01   max: -.3319E+00   D at   39  2
       a =  2.000      CL =  1.0593
      Cm = -0.2149     CD =  0.01808   =>   CDf =  0.00686    CDp =  0.01122

 Side 1  free  transition at x/c =  0.6155   66
 Side 2  free  transition at x/c =  0.1949   38

   5   rms: 0.8680E-02   max: 0.8271E-01   T at   38  2
       a =  2.000      CL =  1.0603
      Cm = -0.2150     CD =  0.01829   =>   CDf =  0.00704    CDp =  0.01125

 Side 1  free  transition at x/c =  0.6155   66
 Side 2  free  transition at x/c =  0.1940   38

   6   rms: 0.1263E-02   max: 0.1355E-01   T at   38  2
       a =  2.000      CL =  1.0602
      Cm = -0.2149     CD =  0.01834   =>   CDf =  0.00705    CDp =  0.01129

 Side 1  free  transition at x/c =  0.6155   66
 Side 2  free  transition at x/c =  0.1939   38

   7   rms: 0.1419E-03   max: 0.1054E-02   T at   38  2
       a =  2.000      CL =  1.0602
      Cm = -0.2149     CD =  0.01835   =>   CDf =  0.00705    CDp =  0.01129

 Side 1  free  transition at x/c =  0.6155   66
 Side 2  free  transition at x/c =  0.1939   38

   8   rms: 0.1868E-05   max: -.1440E-04   D at    4  1
       a =  2.000      CL =  1.0602
      Cm = -0.2149     CD =  0.01835   =>   CDf =  0.00705    CDp =  0.01129

 Point added to stored polar  1
 Point written to save file  000127M0.04.log                                 
 Dump file unspecified or not available
 Calculating wake trajectory ...
 Calculating source influence matrix ...

 Solving BL system ...

 Side 1  free  transition at x/c =  0.6155   66
 Side 2  free  transition at x/c =  0.1939   38

   1   rms: 0.2520E+00   max: -.1464E+01   T at   38  2   RLX: 0.342
       a =  3.000      CL =  1.1007
      Cm = -0.2157     CD =  0.01732   =>   CDf =  0.00706    CDp =  0.01026

 Side 1  free  transition at x/c =  0.6119   66
 Side 2  free  transition at x/c =  0.2019   38

   2   rms: 0.1055E+00   max: -.2870E+00   T at   38  2
       a =  3.000      CL =  1.1797
      Cm = -0.2155     CD =  0.01819   =>   CDf =  0.00667    CDp =  0.01152

 Side 1  free  transition at x/c =  0.6068   66
 Side 2  free  transition at x/c =  0.2074   37

   3   rms: 0.2262E-01   max: -.1082E+00   D at   38  2
       a =  3.000      CL =  1.1738
      Cm = -0.2147     CD =  0.01855   =>   CDf =  0.00703    CDp =  0.01152

 Side 1  free  transition at x/c =  0.6049   66
 Side 2  free  transition at x/c =  0.2073   37

   4   rms: 0.6583E-03   max: 0.3123E-02   D at   85  1
       a =  3.000      CL =  1.1743
      Cm = -0.2147     CD =  0.01855   =>   CDf =  0.00704    CDp =  0.01150

 Side 1  free  transition at x/c =  0.6049   66
 Side 2  free  transition at x/c =  0.2073   37

   5   rms: 0.5205E-05   max: 0.2574E-04   D at   83  1
       a =  3.000      CL =  1.1743
      Cm = -0.2147     CD =  0.01855   =>   CDf =  0.00704    CDp =  0.01150

 Point added to stored polar  1
 Point written to save file  000127M0.04.log                                 
 Dump file unspecified or not available
 Calculating wake trajectory ...
 Calculating source influence matrix ...

 Solving BL system ...

 Side 1  free  transition at x/c =  0.6049   66
 Side 2  free  transition at x/c =  0.2073   37

   1   rms: 0.1488E+00   max: -.9123E+00   T at   37  2   RLX: 0.548
       a =  4.000      CL =  1.2313
      Cm = -0.2139     CD =  0.01874   =>   CDf =  0.00685    CDp =  0.01190

 Side 1  free  transition at x/c =  0.5969   67
 Side 2  free  transition at x/c =  0.2190   37

   2   rms: 0.1078E+00   max: 0.1130E+01   D at   37  2
       a =  4.000      CL =  1.2844
      Cm = -0.2139     CD =  0.01863   =>   CDf =  0.00706    CDp =  0.01158

 Side 1  free  transition at x/c =  0.5931   67
 Side 2  free  transition at x/c =  0.2226   37

   3   rms: 0.1275E-01   max: 0.7469E-01   D at   37  2
       a =  4.000      CL =  1.2851
      Cm = -0.2140     CD =  0.01867   =>   CDf =  0.00698    CDp =  0.01169

 Side 1  free  transition at x/c =  0.5930   67
 Side 2  free  transition at x/c =  0.2220   37

   4   rms: 0.4379E-03   max: 0.3833E-02   D at   38  2
       a =  4.000      CL =  1.2851
      Cm = -0.2140     CD =  0.01867   =>   CDf =  0.00696    CDp =  0.01171

 Side 1  free  transition at x/c =  0.5930   67
 Side 2  free  transition at x/c =  0.2220   37

   5   rms: 0.2765E-05   max: 0.1543E-04   D at   38  2
       a =  4.000      CL =  1.2851
      Cm = -0.2140     CD =  0.01867   =>   CDf =  0.00696    CDp =  0.01171

 Point added to stored polar  1
 Point written to save file  000127M0.04.log                                 
 Dump file unspecified or not available
 Calculating wake trajectory ...
 Calculating source influence matrix ...

 Solving BL system ...

 Side 1  free  transition at x/c =  0.5930   67
 Side 2  free  transition at x/c =  0.2220   37

   1   rms: 0.1501E+00   max: -.8436E+00   T at   37  2   RLX: 0.593
       a =  5.000      CL =  1.3558
      Cm = -0.2143     CD =  0.01868   =>   CDf =  0.00675    CDp =  0.01193

 Side 1  free  transition at x/c =  0.5875   67
 Side 2  free  transition at x/c =  0.2356   37

   2   rms: 0.8633E-01   max: 0.8550E+00   D at   37  2
       a =  5.000      CL =  1.3894
      Cm = -0.2124     CD =  0.01928   =>   CDf =  0.00684    CDp =  0.01244

 Side 1  free  transition at x/c =  0.5810   68
 Side 2  free  transition at x/c =  0.2382   36

   3   rms: 0.8559E-02   max: -.7806E-01   D at   69  1
       a =  5.000      CL =  1.3924
      Cm = -0.2128     CD =  0.01924   =>   CDf =  0.00684    CDp =  0.01240

 Side 1  free  transition at x/c =  0.5814   68
 Side 2  free  transition at x/c =  0.2381   36

   4   rms: 0.4953E-03   max: 0.4807E-02   D at   69  1
       a =  5.000      CL =  1.3926
      Cm = -0.2129     CD =  0.01924   =>   CDf =  0.00684    CDp =  0.01240

 Side 1  free  transition at x/c =  0.5814   68
 Side 2  free  transition at x/c =  0.2381   36

   5   rms: 0.6501E-05   max: -.3848E-04   D at   37  2
       a =  5.000      CL =  1.3925
      Cm = -0.2129     CD =  0.01924   =>   CDf =  0.00684    CDp =  0.01240

 Point added to stored polar  1
 Point written to save file  000127M0.04.log                                 
 Dump file unspecified or not available
 Calculating wake trajectory ...
 Calculating source influence matrix ...

 Solving BL system ...

 Side 1  free  transition at x/c =  0.5814   68
 Side 2  free  transition at x/c =  0.2381   36

   1   rms: 0.1393E+00   max: -.7390E+00   T at   36  2   RLX: 0.677
       a =  6.000      CL =  1.4624
      Cm = -0.2117     CD =  0.01965   =>   CDf =  0.00661    CDp =  0.01304

 Side 1  free  transition at x/c =  0.5730   69
 Side 2  free  transition at x/c =  0.2533   36

   2   rms: 0.7041E-01   max: 0.6466E+00   D at   36  2
       a =  6.000      CL =  1.5056
      Cm = -0.2124     CD =  0.01956   =>   CDf =  0.00685    CDp =  0.01272

 Side 1  free  transition at x/c =  0.5704   69
 Side 2  free  transition at x/c =  0.2564   36

   3   rms: 0.2662E-02   max: -.2348E-01   D at   69  1
       a =  6.000      CL =  1.5061
      Cm = -0.2125     CD =  0.01956   =>   CDf =  0.00681    CDp =  0.01275

 Side 1  free  transition at x/c =  0.5705   69
 Side 2  free  transition at x/c =  0.2567   36

   4   rms: 0.2852E-04   max: 0.2654E-03   D at   37  2
       a =  6.000      CL =  1.5061
      Cm = -0.2125     CD =  0.01956   =>   CDf =  0.00682    CDp =  0.01274

 Point added to stored polar  1
 Point written to save file  000127M0.04.log                                 
 Dump file unspecified or not available
 Calculating wake trajectory ...
 Calculating source influence matrix ...

 Solving BL system ...

 Side 1  free  transition at x/c =  0.5705   69
 Side 2  free  transition at x/c =  0.2567   36

   1   rms: 0.1484E+00   max: -.7789E+00   T at   36  2   RLX: 0.642
       a =  7.000      CL =  1.5845
      Cm = -0.2131     CD =  0.01994   =>   CDf =  0.00658    CDp =  0.01336

 Side 1  free  transition at x/c =  0.5656   69
 Side 2  free  transition at x/c =  0.2738   36

   2   rms: 0.6193E-01   max: 0.5602E+00   D at   36  2
       a =  7.000      CL =  1.5911
      Cm = -0.2081     CD =  0.02096   =>   CDf =  0.00670    CDp =  0.01426

 Side 1  free  transition at x/c =  0.5562   69
 Side 2  free  transition at x/c =  0.2753   36

   3   rms: 0.1532E-01   max: -.1004E+00   D at   70  1
       a =  7.000      CL =  1.6038
      Cm = -0.2100     CD =  0.02055   =>   CDf =  0.00657    CDp =  0.01398

 Side 1  free  transition at x/c =  0.5578   69
 Side 2  free  transition at x/c =  0.2763   36

   4   rms: 0.7641E-03   max: -.6855E-02   D at   90  1
       a =  7.000      CL =  1.6033
      Cm = -0.2099     CD =  0.02055   =>   CDf =  0.00654    CDp =  0.01401

 Side 1  free  transition at x/c =  0.5578   69
 Side 2  free  transition at x/c =  0.2763   36

   5   rms: 0.4889E-05   max: -.4612E-04   D at   90  1
       a =  7.000      CL =  1.6033
      Cm = -0.2099     CD =  0.02055   =>   CDf =  0.00654    CDp =  0.01401

 Point added to stored polar  1
 Point written to save file  000127M0.04.log                                 
 Dump file unspecified or not available
 Calculating wake trajectory ...
 Calculating source influence matrix ...

 Solving BL system ...

 Side 1  free  transition at x/c =  0.5578   69
 Side 2  free  transition at x/c =  0.2763   36

   1   rms: 0.1383E+00   max: -.7576E+00   T at   36  2   RLX: 0.660
       a =  8.000      CL =  1.6738
      Cm = -0.2089     CD =  0.02087   =>   CDf =  0.00630    CDp =  0.01457

 Side 1  free  transition at x/c =  0.5470   69
 Side 2  free  transition at x/c =  0.2939   36

   2   rms: 0.5818E-01   max: 0.4705E+00   D at   36  2
       a =  8.000      CL =  1.6998
      Cm = -0.2067     CD =  0.02084   =>   CDf =  0.00631    CDp =  0.01453

 Side 1  free  transition at x/c =  0.5389   70
 Side 2  free  transition at x/c =  0.2980   35

   3   rms: 0.1342E-01   max: -.1220E+00   D at   71  1
       a =  8.000      CL =  1.7019
      Cm = -0.2069     CD =  0.02083   =>   CDf =  0.00643    CDp =  0.01440

 Side 1  free  transition at x/c =  0.5404   70
 Side 2  free  transition at x/c =  0.2987   35

   4   rms: 0.2464E-03   max: 0.2402E-02   D at   71  1
       a =  8.000      CL =  1.7021
      Cm = -0.2069     CD =  0.02084   =>   CDf =  0.00643    CDp =  0.01441

 Side 1  free  transition at x/c =  0.5403   70
 Side 2  free  transition at x/c =  0.2987   35

   5   rms: 0.4229E-05   max: 0.1963E-04   D at   75  2
       a =  8.000      CL =  1.7021
      Cm = -0.2069     CD =  0.02084   =>   CDf =  0.00643    CDp =  0.01441

 Point added to stored polar  1
 Point written to save file  000127M0.04.log                                 
 Dump file unspecified or not available
 Calculating wake trajectory ...
 Calculating source influence matrix ...

 Solving BL system ...

 Side 1  free  transition at x/c =  0.5403   70
 Side 2  free  transition at x/c =  0.2987   35

   1   rms: 0.1402E+00   max: -.7853E+00   T at   35  2   RLX: 0.637
       a =  9.000      CL =  1.7589
      Cm = -0.2038     CD =  0.02061   =>   CDf =  0.00617    CDp =  0.01443

 Side 1  free  transition at x/c =  0.5277   70
 Side 2  free  transition at x/c =  0.3174   35

   2   rms: 0.5870E-01   max: 0.5762E+00   D at   35  2
       a =  9.000      CL =  1.7702
      Cm = -0.1993     CD =  0.02162   =>   CDf =  0.00644    CDp =  0.01518

 Side 1  free  transition at x/c =  0.5168   70
 Side 2  free  transition at x/c =  0.3210   35

   3   rms: 0.2508E-01   max: -.1293E+00   D at   92  1
       a =  9.000      CL =  1.7860
      Cm = -0.2016     CD =  0.02106   =>   CDf =  0.00636    CDp =  0.01471

 Side 1  free  transition at x/c =  0.5186   70
 Side 2  free  transition at x/c =  0.3227   35

   4   rms: 0.1200E-02   max: 0.6782E-02   D at   74  2
       a =  9.000      CL =  1.7874
      Cm = -0.2019     CD =  0.02117   =>   CDf =  0.00631    CDp =  0.01486

 Side 1  free  transition at x/c =  0.5184   70
 Side 2  free  transition at x/c =  0.3228   35

   5   rms: 0.2033E-04   max: -.1301E-03   D at   74  2
       a =  9.000      CL =  1.7874
      Cm = -0.2019     CD =  0.02117   =>   CDf =  0.00632    CDp =  0.01485

 Point added to stored polar  1
 Point written to save file  000127M0.04.log                                 
 Dump file unspecified or not available
 Calculating wake trajectory ...
 Calculating source influence matrix ...

 Solving BL system ...

 Side 1  free  transition at x/c =  0.5184   70
 Side 2  free  transition at x/c =  0.3228   35

   1   rms: 0.1377E+00   max: -.8945E+00   T at   35  2   RLX: 0.559
       a = 10.000      CL =  1.8339
      Cm = -0.1988     CD =  0.02133   =>   CDf =  0.00605    CDp =  0.01528

 MRCHDU: Convergence failed at  36  side 2    Res =  0.2637E+01
 MRCHDU: Convergence failed at  37  side 2    Res =  0.7561E+01
 MRCHDU: Convergence failed at  38  side 2    Res =  0.7233E+01
 MRCHDU: Convergence failed at  39  side 2    Res =  0.4519E+01
 MRCHDU: Convergence failed at  40  side 2    Res =  0.6869E+01
 MRCHDU: Convergence failed at  41  side 2    Res =  0.9324E+01
 MRCHDU: Convergence failed at  42  side 2    Res =  0.1073E+02
 MRCHDU: Convergence failed at  43  side 2    Res =  0.1155E+02
 MRCHDU: Convergence failed at  44  side 2    Res =  0.1189E+02
 MRCHDU: Convergence failed at  45  side 2    Res =  0.1191E+02
 MRCHDU: Convergence failed at  46  side 2    Res =  0.1171E+02
 MRCHDU: Convergence failed at  47  side 2    Res =  0.1132E+02
 MRCHDU: Convergence failed at  48  side 2    Res =  0.1072E+02
 MRCHDU: Convergence failed at  49  side 2    Res =  0.9882E+01
 MRCHDU: Convergence failed at  50  side 2    Res =  0.8771E+01
 MRCHDU: Convergence failed at  51  side 2    Res =  0.7382E+01
 MRCHDU: Convergence failed at  52  side 2    Res =  0.5812E+01
 MRCHDU: Convergence failed at  53  side 2    Res =  0.4370E+01
 MRCHDU: Convergence failed at  54  side 2    Res =  0.3148E+01
 MRCHDU: Convergence failed at  55  side 2    Res =  0.8776E+01
 MRCHDU: Convergence failed at  56  side 2    Res =  0.1161E+02
 Side 1  free  transition at x/c =  0.5058   70
 Side 2  free  transition at x/c =  0.3422   35

   2   rms: 0.1680E+00   max: 0.1270E+01   T at   35  2   RLX: 0.791
       a = 10.000      CL =  1.8085
      Cm = -0.1876     CD =  0.02225   =>   CDf =  0.00544    CDp =  0.01680

 MRCHDU: Convergence failed at  47  side 2    Res =  0.6308E-01
 MRCHDU: Convergence failed at  49  side 2    Res =  0.1234E+01
 MRCHDU: Convergence failed at  51  side 2    Res =  0.2693E+01
 Side 1  free  transition at x/c =  0.4955   70
 Side 2  free  transition at x/c =  0.3207   34

   3   rms: 0.2249E+00   max: -.1773E+01   T at   34  2   RLX: 0.282
       a = 10.000      CL =  1.8314
      Cm = -0.1910     CD =  0.02513   =>   CDf =  0.00608    CDp =  0.01906

 MRCHDU: Convergence failed at  47  side 2    Res =  0.1648E+00
 MRCHDU: Convergence failed at  48  side 2    Res =  0.3420E+00
 MRCHDU: Convergence failed at  49  side 2    Res =  0.3203E+00
 MRCHDU: Convergence failed at  50  side 2    Res =  0.3167E+00
 MRCHDU: Convergence failed at  51  side 2    Res =  0.3210E+00
 MRCHDU: Convergence failed at  52  side 2    Res =  0.3348E+00
 MRCHDU: Convergence failed at  53  side 2    Res =  0.3497E+00
 MRCHDU: Convergence failed at  54  side 2    Res =  0.3678E+00
 MRCHDU: Convergence failed at  55  side 2    Res =  0.3881E+00
 MRCHDU: Convergence failed at  56  side 2    Res =  0.4099E+00
 MRCHDU: Convergence failed at  57  side 2    Res =  0.4510E+00
 MRCHDU: Convergence failed at  58  side 2    Res =  0.5461E+00
 MRCHDU: Convergence failed at  59  side 2    Res =  0.6436E+00
 MRCHDU: Convergence failed at  60  side 2    Res =  0.7303E+00
 MRCHDU: Convergence failed at  61  side 2    Res =  0.7789E+00
 MRCHDU: Convergence failed at  62  side 2    Res =  0.8422E+00
 MRCHDU: Convergence failed at  63  side 2    Res =  0.9014E+00
 MRCHDU: Convergence failed at  64  side 2    Res =  0.9591E+00
 MRCHDU: Convergence failed at  65  side 2    Res =  0.1016E+01
 MRCHDU: Convergence failed at  66  side 2    Res =  0.1115E+01
 MRCHDU: Convergence failed at  67  side 2    Res =  0.1224E+01
 MRCHDU: Convergence failed at  68  side 2    Res =  0.1606E+01
 Side 1  free  transition at x/c =  0.4952   70
 Side 2  free  transition at x/c =  0.3348   35

   4   rms: 0.2009E+01   max: -.7332E+01   D at   68  2   RLX: 0.068
       a = 10.000      CL =  1.8055
      Cm = -0.2390     CD =  0.03561   =>   CDf =  0.00452    CDp =  0.03109

 Side 1  free  transition at x/c =  0.5002   69
 Side 2  free  transition at x/c =  0.3355   36

   5   rms: 0.6823E+00   max: -.3205E+01   D at   69  2   RLX: 0.156
       a = 10.000      CL =  1.8136
      Cm = -0.2347     CD =  0.02837   =>   CDf =  0.00468    CDp =  0.02370

 Side 1  free  transition at x/c =  0.5000   69
 Side 2  free  transition at x/c =  0.3410   36

   6   rms: 0.6401E+00   max: -.3090E+01   D at   52  2   RLX: 0.162
       a = 10.000      CL =  1.8241
      Cm = -0.2303     CD =  0.02625   =>   CDf =  0.00489    CDp =  0.02136

 Side 1  free  transition at x/c =  0.4993   69
 Side 2  free  transition at x/c =  0.3469   37

   7   rms: 0.4047E+00   max: -.1709E+01   D at   48  2   RLX: 0.292
       a = 10.000      CL =  1.8347
      Cm = -0.2213     CD =  0.02453   =>   CDf =  0.00513    CDp =  0.01940

 Side 1  free  transition at x/c =  0.4981   69
 Side 2  free  transition at x/c =  0.3508   37

   8   rms: 0.2854E+00   max: -.1476E+01   D at   49  2   RLX: 0.339
       a = 10.000      CL =  1.8405
      Cm = -0.2127     CD =  0.02373   =>   CDf =  0.00519    CDp =  0.01854

 Side 1  free  transition at x/c =  0.4970   70
 Side 2  free  transition at x/c =  0.3537   36

   9   rms: 0.1753E+00   max: -.1108E+01   D at   50  2   RLX: 0.451
       a = 10.000      CL =  1.8437
      Cm = -0.2044     CD =  0.02303   =>   CDf =  0.00569    CDp =  0.01734

 Side 1  free  transition at x/c =  0.4959   70
 Side 2  free  transition at x/c =  0.3526   36

  10   rms: 0.9238E-01   max: -.7944E+00   D at   50  2   RLX: 0.629
       a = 10.000      CL =  1.8470
      Cm = -0.1977     CD =  0.02255   =>   CDf =  0.00590    CDp =  0.01665

 Side 1  free  transition at x/c =  0.4949   70
 Side 2  free  transition at x/c =  0.3500   36

  11   rms: 0.3629E-01   max: -.4006E+00   D at   50  2
       a = 10.000      CL =  1.8492
      Cm = -0.1937     CD =  0.02228   =>   CDf =  0.00609    CDp =  0.01620

 Side 1  free  transition at x/c =  0.4943   70
 Side 2  free  transition at x/c =  0.3478   36

  12   rms: 0.2994E-02   max: -.3956E-01   D at   50  2
       a = 10.000      CL =  1.8492
      Cm = -0.1937     CD =  0.02232   =>   CDf =  0.00621    CDp =  0.01610

 Side 1  free  transition at x/c =  0.4943   70
 Side 2  free  transition at x/c =  0.3473   36

  13   rms: 0.1060E-03   max: 0.1131E-02   T at   36  2
       a = 10.000      CL =  1.8492
      Cm = -0.1937     CD =  0.02232   =>   CDf =  0.00622    CDp =  0.01610

 Side 1  free  transition at x/c =  0.4943   70
 Side 2  free  transition at x/c =  0.3473   36

  14   rms: 0.1091E-05   max: 0.5188E-05   D at   87  1
       a = 10.000      CL =  1.8492
      Cm = -0.1937     CD =  0.02232   =>   CDf =  0.00622    CDp =  0.01610

 Point added to stored polar  1
 Point written to save file  000127M0.04.log                                 
 Dump file unspecified or not available
 Calculating wake trajectory ...
 Calculating source influence matrix ...

 Solving BL system ...

 Side 1  free  transition at x/c =  0.4943   70
 Side 2  free  transition at x/c =  0.3473   36

   1   rms: 0.1937E+00   max: -.1316E+01   T at   36  2   RLX: 0.380
       a = 11.000      CL =  1.8958
      Cm = -0.1938     CD =  0.02194   =>   CDf =  0.00595    CDp =  0.01599

 Side 1  free  transition at x/c =  0.4826   70
 Side 2  free  transition at x/c =  0.3624   35

   2   rms: 0.1102E+00   max: 0.5108E+00   D at   91  1
       a = 11.000      CL =  1.8645
      Cm = -0.1808     CD =  0.02562   =>   CDf =  0.00610    CDp =  0.01952

 Side 1  free  transition at x/c =  0.4646   69
 Side 2  free  transition at x/c =  0.3709   36

   3   rms: 0.2932E-01   max: -.1924E+00   D at   69  1
       a = 11.000      CL =  1.8708
      Cm = -0.1827     CD =  0.02619   =>   CDf =  0.00601    CDp =  0.02018

 Side 1  free  transition at x/c =  0.4646   69
 Side 2  free  transition at x/c =  0.3706   36

   4   rms: 0.3570E-02   max: 0.2317E-01   D at   36  2
       a = 11.000      CL =  1.8726
      Cm = -0.1829     CD =  0.02622   =>   CDf =  0.00588    CDp =  0.02034

 Side 1  free  transition at x/c =  0.4641   69
 Side 2  free  transition at x/c =  0.3707   36

   5   rms: 0.7632E-04   max: -.5221E-03   D at   77  2
       a = 11.000      CL =  1.8726
      Cm = -0.1830     CD =  0.02622   =>   CDf =  0.00589    CDp =  0.02033

 Point added to stored polar  1
 Point written to save file  000127M0.04.log                                 
 Dump file unspecified or not available
 Calculating wake trajectory ...
 Calculating source influence matrix ...

 Solving BL system ...

 Side 1  free  transition at x/c =  0.4641   69
 Side 2  free  transition at x/c =  0.3707   36

   1   rms: 0.1349E+00   max: -.8345E+00   T at   36  2   RLX: 0.599
       a = 12.000      CL =  1.8928
      Cm = -0.1779     CD =  0.02881   =>   CDf =  0.00591    CDp =  0.02289

 Side 1  free  transition at x/c =  0.4431   68
 Side 2  free  transition at x/c =  0.3850   36

   2   rms: 0.6865E-01   max: -.4036E+00   T at   36  2
       a = 12.000      CL =  1.8878
      Cm = -0.1733     CD =  0.03217   =>   CDf =  0.00561    CDp =  0.02656

 MRCHDU: Convergence failed at  37  side 2    Res =  0.4506E+01
 MRCHDU: Convergence failed at  38  side 2    Res =  0.1369E+01
 MRCHDU: Convergence failed at  39  side 2    Res =  0.1876E+01
 MRCHDU: Convergence failed at  40  side 2    Res =  0.2658E+01
 MRCHDU: Convergence failed at  41  side 2    Res =  0.3467E+01
 MRCHDU: Convergence failed at  42  side 2    Res =  0.4076E+01
 MRCHDU: Convergence failed at  43  side 2    Res =  0.4550E+01
 MRCHDU: Convergence failed at  44  side 2    Res =  0.4415E+01
 MRCHDU: Convergence failed at  45  side 2    Res =  0.3990E+01
 MRCHDU: Convergence failed at  46  side 2    Res =  0.3210E+01
 MRCHDU: Convergence failed at  47  side 2    Res =  0.2632E+01
 MRCHDU: Convergence failed at  48  side 2    Res =  0.2092E+01
 MRCHDU: Convergence failed at  49  side 2    Res =  0.1650E+01
 Side 1  free  transition at x/c =  0.4293   68
 Side 2  free  transition at x/c =  0.4013   36

   3   rms: 0.8972E-01   max: 0.6683E+00   T at   38  2
       a = 12.000      CL =  1.8946
      Cm = -0.1746     CD =  0.03172   =>   CDf =  0.00523    CDp =  0.02649

 Side 1  free  transition at x/c =  0.4294   68
 Side 2  free  transition at x/c =  0.3995   36

   4   rms: 0.1360E-01   max: -.1686E+00   D at   38  2
       a = 12.000      CL =  1.8923
      Cm = -0.1740     CD =  0.03202   =>   CDf =  0.00565    CDp =  0.02636

 Side 1  free  transition at x/c =  0.4295   68
 Side 2  free  transition at x/c =  0.3978   36

   5   rms: 0.1258E-02   max: -.2444E-01   D at   38  2
       a = 12.000      CL =  1.8923
      Cm = -0.1740     CD =  0.03202   =>   CDf =  0.00566    CDp =  0.02635

 Side 1  free  transition at x/c =  0.4295   68
 Side 2  free  transition at x/c =  0.3974   36

   6   rms: 0.2131E-04   max: -.4689E-03   D at   38  2
       a = 12.000      CL =  1.8923
      Cm = -0.1740     CD =  0.03202   =>   CDf =  0.00566    CDp =  0.02635

 Point added to stored polar  1
 Point written to save file  000127M0.04.log                                 
 Dump file unspecified or not available
 Calculating wake trajectory ...
 Calculating source influence matrix ...

 Solving BL system ...

 Side 1  free  transition at x/c =  0.4295   68
 Side 2  free  transition at x/c =  0.3974   36

   1   rms: 0.1400E+00   max: -.6138E+00   T at   36  2   RLX: 0.815
       a = 13.000      CL =  1.8954
      Cm = -0.1667     CD =  0.03857   =>   CDf =  0.00568    CDp =  0.03289

 Side 1  free  transition at x/c =  0.3843   65
 Side 2  free  transition at x/c =  0.4203   37

   2   rms: 0.4730E-01   max: -.3818E+00   D at   66  1
       a = 13.000      CL =  1.8806
      Cm = -0.1646     CD =  0.04202   =>   CDf =  0.00575    CDp =  0.03627

 Side 1  free  transition at x/c =  0.3800   65
 Side 2  free  transition at x/c =  0.4233   37

   3   rms: 0.4988E-02   max: 0.5378E-01   D at   82  1
       a = 13.000      CL =  1.8828
      Cm = -0.1647     CD =  0.04153   =>   CDf =  0.00556    CDp =  0.03597

 Side 1  free  transition at x/c =  0.3780   65
 Side 2  free  transition at x/c =  0.4244   37

   4   rms: 0.2322E-03   max: -.2118E-02   D at   82  1
       a = 13.000      CL =  1.8829
      Cm = -0.1647     CD =  0.04151   =>   CDf =  0.00558    CDp =  0.03593

 Side 1  free  transition at x/c =  0.3780   65
 Side 2  free  transition at x/c =  0.4244   37

   5   rms: 0.7046E-05   max: -.4406E-04   D at   76  2
       a = 13.000      CL =  1.8830
      Cm = -0.1647     CD =  0.04151   =>   CDf =  0.00558    CDp =  0.03593

 Point added to stored polar  1
 Point written to save file  000127M0.04.log                                 
 Dump file unspecified or not available
 Calculating wake trajectory ...
 Calculating source influence matrix ...

 Solving BL system ...

 Side 1  free  transition at x/c =  0.3780   65
 Side 2  free  transition at x/c =  0.4244   37

   1   rms: 0.1539E+00   max: 0.8933E+00   C at   65  1   RLX: 0.656
       a = 14.000      CL =  1.8682
      Cm = -0.1593     CD =  0.04993   =>   CDf =  0.00532    CDp =  0.04461

 Side 1  free  transition at x/c =  0.3112   62
 Side 2  free  transition at x/c =  0.4467   38

   2   rms: 0.7092E-01   max: 0.5337E+00   D at   81  1
       a = 14.000      CL =  1.8362
      Cm = -0.1559     CD =  0.05723   =>   CDf =  0.00596    CDp =  0.05127

 Side 1  free  transition at x/c =  0.2665   60
 Side 2  free  transition at x/c =  0.4502   38

   3   rms: 0.3264E-01   max: -.4932E+00   C at   60  1
       a = 14.000      CL =  1.8204
      Cm = -0.1553     CD =  0.05850   =>   CDf =  0.00615    CDp =  0.05235

 Side 1  free  transition at x/c =  0.2814   60
 Side 2  free  transition at x/c =  0.4460   38

   4   rms: 0.7376E-02   max: -.1248E+00   C at   60  1
       a = 14.000      CL =  1.8166
      Cm = -0.1551     CD =  0.05870   =>   CDf =  0.00595    CDp =  0.05275

 Side 1  free  transition at x/c =  0.2874   61
 Side 2  free  transition at x/c =  0.4453   37

   5   rms: 0.4104E-02   max: 0.7823E-01   C at   61  1
       a = 14.000      CL =  1.8181
      Cm = -0.1551     CD =  0.05849   =>   CDf =  0.00586    CDp =  0.05263

 Side 1  free  transition at x/c =  0.2850   61
 Side 2  free  transition at x/c =  0.4451   37

   6   rms: 0.7844E-02   max: -.1001E+00   D at   37  2
       a = 14.000      CL =  1.8181
      Cm = -0.1551     CD =  0.05851   =>   CDf =  0.00592    CDp =  0.05259

 Side 1  free  transition at x/c =  0.2851   61
 Side 2  free  transition at x/c =  0.4453   37

   7   rms: 0.7430E-02   max: -.9487E-01   D at   37  2
       a = 14.000      CL =  1.8181
      Cm = -0.1551     CD =  0.05851   =>   CDf =  0.00591    CDp =  0.05259

 Side 1  free  transition at x/c =  0.2851   61
 Side 2  free  transition at x/c =  0.4453   37

   8   rms: 0.7462E-02   max: -.9535E-01   D at   37  2
       a = 14.000      CL =  1.8181
      Cm = -0.1551     CD =  0.05851   =>   CDf =  0.00591    CDp =  0.05259

 Side 1  free  transition at x/c =  0.2851   61
 Side 2  free  transition at x/c =  0.4453   37

   9   rms: 0.7458E-02   max: -.9530E-01   D at   37  2
       a = 14.000      CL =  1.8181
      Cm = -0.1551     CD =  0.05851   =>   CDf =  0.00591    CDp =  0.05259

 Side 1  free  transition at x/c =  0.2851   61
 Side 2  free  transition at x/c =  0.4453   37

  10   rms: 0.7458E-02   max: -.9531E-01   D at   37  2
       a = 14.000      CL =  1.8181
      Cm = -0.1551     CD =  0.05851   =>   CDf =  0.00591    CDp =  0.05259

 Side 1  free  transition at x/c =  0.2851   61
 Side 2  free  transition at x/c =  0.4453   37

  11   rms: 0.7459E-02   max: -.9531E-01   D at   37  2
       a = 14.000      CL =  1.8181
      Cm = -0.1551     CD =  0.05851   =>   CDf =  0.00591    CDp =  0.05259

 Side 1  free  transition at x/c =  0.2851   61
 Side 2  free  transition at x/c =  0.4453   37

  12   rms: 0.7459E-02   max: -.9531E-01   D at   37  2
       a = 14.000      CL =  1.8181
      Cm = -0.1551     CD =  0.05851   =>   CDf =  0.00591    CDp =  0.05259

 Side 1  free  transition at x/c =  0.2851   61
 Side 2  free  transition at x/c =  0.4453   37

  13   rms: 0.7459E-02   max: -.9530E-01   D at   37  2
       a = 14.000      CL =  1.8181
      Cm = -0.1551     CD =  0.05851   =>   CDf =  0.00591    CDp =  0.05259

 Side 1  free  transition at x/c =  0.2851   61
 Side 2  free  transition at x/c =  0.4453   37

  14   rms: 0.7459E-02   max: -.9532E-01   D at   37  2
       a = 14.000      CL =  1.8181
      Cm = -0.1551     CD =  0.05851   =>   CDf =  0.00591    CDp =  0.05259

 Side 1  free  transition at x/c =  0.2851   61
 Side 2  free  transition at x/c =  0.4453   37

  15   rms: 0.7459E-02   max: -.9532E-01   D at   37  2
       a = 14.000      CL =  1.8181
      Cm = -0.1551     CD =  0.05851   =>   CDf =  0.00591    CDp =  0.05259

 Side 1  free  transition at x/c =  0.2851   61
 Side 2  free  transition at x/c =  0.4453   37

  16   rms: 0.7459E-02   max: -.9532E-01   D at   37  2
       a = 14.000      CL =  1.8181
      Cm = -0.1551     CD =  0.05851   =>   CDf =  0.00591    CDp =  0.05259

 Side 1  free  transition at x/c =  0.2851   61
 Side 2  free  transition at x/c =  0.4453   37

  17   rms: 0.7459E-02   max: -.9532E-01   D at   37  2
       a = 14.000      CL =  1.8181
      Cm = -0.1551     CD =  0.05851   =>   CDf =  0.00591    CDp =  0.05259

 Side 1  free  transition at x/c =  0.2851   61
 Side 2  free  transition at x/c =  0.4453   37

  18   rms: 0.7458E-02   max: -.9531E-01   D at   37  2
       a = 14.000      CL =  1.8181
      Cm = -0.1551     CD =  0.05851   =>   CDf =  0.00591    CDp =  0.05259

 Side 1  free  transition at x/c =  0.2851   61
 Side 2  free  transition at x/c =  0.4453   37

  19   rms: 0.7459E-02   max: -.9531E-01   D at   37  2
       a = 14.000      CL =  1.8181
      Cm = -0.1551     CD =  0.05851   =>   CDf =  0.00591    CDp =  0.05259

 Side 1  free  transition at x/c =  0.2851   61
 Side 2  free  transition at x/c =  0.4453   37

  20   rms: 0.7459E-02   max: -.9531E-01   D at   37  2
       a = 14.000      CL =  1.8181
      Cm = -0.1551     CD =  0.05851   =>   CDf =  0.00591    CDp =  0.05259

 Side 1  free  transition at x/c =  0.2851   61
 Side 2  free  transition at x/c =  0.4453   37

  21   rms: 0.7459E-02   max: -.9531E-01   D at   37  2
       a = 14.000      CL =  1.8181
      Cm = -0.1551     CD =  0.05851   =>   CDf =  0.00591    CDp =  0.05259

 Side 1  free  transition at x/c =  0.2851   61
 Side 2  free  transition at x/c =  0.4453   37

  22   rms: 0.7459E-02   max: -.9531E-01   D at   37  2
       a = 14.000      CL =  1.8181
      Cm = -0.1551     CD =  0.05851   =>   CDf =  0.00591    CDp =  0.05259

 Side 1  free  transition at x/c =  0.2851   61
 Side 2  free  transition at x/c =  0.4453   37

  23   rms: 0.7459E-02   max: -.9531E-01   D at   37  2
       a = 14.000      CL =  1.8181
      Cm = -0.1551     CD =  0.05851   =>   CDf =  0.00591    CDp =  0.05259

 Side 1  free  transition at x/c =  0.2851   61
 Side 2  free  transition at x/c =  0.4453   37

  24   rms: 0.7459E-02   max: -.9532E-01   D at   37  2
       a = 14.000      CL =  1.8181
      Cm = -0.1551     CD =  0.05851   =>   CDf =  0.00591    CDp =  0.05259

 Side 1  free  transition at x/c =  0.2851   61
 Side 2  free  transition at x/c =  0.4453   37

  25   rms: 0.7459E-02   max: -.9531E-01   D at   37  2
       a = 14.000      CL =  1.8181
      Cm = -0.1551     CD =  0.05851   =>   CDf =  0.00591    CDp =  0.05259
 VISCAL:  Convergence failed
 Calculating wake trajectory ...
 Calculating source influence matrix ...

 Solving BL system ...

 Side 1  free  transition at x/c =  0.2851   61
 Side 2  free  transition at x/c =  0.4453   37

   1   rms: 0.2477E+00   max: 0.3181E+01   C at   61  1   RLX: 0.472
       a = 15.000      CL =  1.7647
      Cm = -0.1511     CD =  0.07087   =>   CDf =  0.00593    CDp =  0.06494

 Side 1  free  transition at x/c =  0.2256   57
 Side 2  free  transition at x/c =  0.4524   38

   2   rms: 0.1381E+00   max: 0.1986E+01   C at   57  1   RLX: 0.755
       a = 15.000      CL =  1.7245
      Cm = -0.1488     CD =  0.08104   =>   CDf =  0.00625    CDp =  0.07478

 Side 1  free  transition at x/c =  0.1743   54
 Side 2  free  transition at x/c =  0.4561   38

   3   rms: 0.4023E-01   max: 0.3560E+00   D at   76  1
       a = 15.000      CL =  1.7032
      Cm = -0.1483     CD =  0.08510   =>   CDf =  0.00658    CDp =  0.07851

 Side 1  free  transition at x/c =  0.1691   53
 Side 2  free  transition at x/c =  0.4559   38

   4   rms: 0.3498E-02   max: 0.5343E-01   D at   75  1
       a = 15.000      CL =  1.7028
      Cm = -0.1481     CD =  0.08423   =>   CDf =  0.00650    CDp =  0.07773

 Side 1  free  transition at x/c =  0.1692   53
 Side 2  free  transition at x/c =  0.4558   38

   5   rms: 0.2364E-03   max: -.2193E-02   D at   75  1
       a = 15.000      CL =  1.7029
      Cm = -0.1481     CD =  0.08416   =>   CDf =  0.00650    CDp =  0.07766

 Side 1  free  transition at x/c =  0.1692   53
 Side 2  free  transition at x/c =  0.4559   38

   6   rms: 0.1385E-04   max: 0.1862E-03   C at   53  1
       a = 15.000      CL =  1.7029
      Cm = -0.1481     CD =  0.08416   =>   CDf =  0.00650    CDp =  0.07766

 Point added to stored polar  1
 Point written to save file  000127M0.04.log                                 
 Dump file unspecified or not available

.OPERva   c>  
 XFOIL   c>  
0.1
resp: 
 ===================================================
  XFOIL Version 6.97
  Copyright (C) 2000   Mark Drela, Harold Youngren

  This software comes with ABSOLUTELY NO WARRANTY,
    subject to the GNU General Public License.

  Caveat computor
 ===================================================

 File  xfoil.def  not found

   QUIT    Exit program

  .OPER    Direct operating point(s)
  .MDES    Complex mapping design routine
  .QDES    Surface speed design routine
  .GDES    Geometry design routine

   SAVE f  Write airfoil to labeled coordinate file
   PSAV f  Write airfoil to plain coordinate file
   ISAV f  Write airfoil to ISES coordinate file
   MSAV f  Write airfoil to MSES coordinate file
   REVE    Reverse written-airfoil node ordering
   DELI i  Change written-airfoil file delimiters

   LOAD f  Read buffer airfoil from coordinate file
   NACA i  Set NACA 4,5-digit airfoil and buffer airfoil
   INTE    Set buffer airfoil by interpolating two airfoils
   NORM    Buffer airfoil normalization toggle
   HALF    Halve the number of points in buffer airfoil
   XYCM rr Change CM reference location, currently  0.25000 0.00000

   BEND    Display structural properties of current airfoil

   PCOP    Set current-airfoil panel nodes directly from buffer airfoil points
   PANE    Set current-airfoil panel nodes ( 160 ) based on curvature
  .PPAR    Show/change paneling

  .PLOP    Plotting options

   WDEF f  Write  current-settings file
   RDEF f  Reread current-settings file
   NAME s  Specify new airfoil name
   NINC    Increment name version number

   Z       Zoom    | (available in all menus)
   U       Unzoom  | 

 XFOIL   c>   ...............................................

  G raphics-enable flag:        T
  S ize of plot object          10.00"
  A spect ratio of plot object   0.5500
  P age dimensions              11.00 x  8.50"
  M argins from page edges       0.00",  0.00"
  F ont size (relative)          0.0150
  W indow/screen size fraction   0.8000
  B lowup input method:        Cursor    
  O rientation of plot:        Landscape 
  C olor PostScript output?     F

      Option, Value   (or <Return>)    c>   ...............................................

  G raphics-enable flag:        F
  S ize of plot object          10.00"
  A spect ratio of plot object   0.5500
  P age dimensions              11.00 x  8.50"
  M argins from page edges       0.00",  0.00"
  F ont size (relative)          0.0150
  W indow/screen size fraction   0.8000
  B lowup input method:        Cursor    
  O rientation of plot:        Landscape 
  C olor PostScript output?     F

      Option, Value   (or <Return>)    c>  
 XFOIL   c>  
 Labeled airfoil file.  Name:  000127                                          

 Number of input coordinate points: 200
 Clockwise ordering
 Max thickness =     0.174983  at x =   0.194
 Max camber    =     0.088951  at x =   0.500

  LE  x,y  =  -0.00000  -0.00056  |   Chord =   0.99988
  TE  x,y  =   0.99988   0.00004  |

 Current airfoil nodes set from buffer airfoil nodes ( 200 )

 XFOIL   c>  
 You are working with the buffer airfoil

.GDES   c>  
  i       x        y      angle
   2   0.9990   0.0003   -0.016
   3   0.9978   0.0006   -0.099
   4   0.9961   0.0011   -0.076
   5   0.9938   0.0018   -0.118
   6   0.9911   0.0025   -0.103
   7   0.9880   0.0035   -0.159
   8   0.9843   0.0046   -0.151
   9   0.9801   0.0058   -0.171
  10   0.9755   0.0072   -0.185
  11   0.9704   0.0087   -0.187
  12   0.9649   0.0104   -0.198
  13   0.9589   0.0123   -0.203
  14   0.9524   0.0143   -0.209
  15   0.9455   0.0165   -0.196
  16   0.9382   0.0189   -0.209
  17   0.9304   0.0215   -0.189
  18   0.9222   0.0242   -0.179
  19   0.9135   0.0271   -0.174
  20   0.9045   0.0301   -0.161
  21   0.8951   0.0333   -0.139
  22   0.8853   0.0367   -0.113
  23   0.8751   0.0402   -0.100
  24   0.8645   0.0439   -0.071
  25   0.8536   0.0477   -0.047
  26   0.8423   0.0517   -0.010
  27   0.8307   0.0558    0.022
  28   0.8187   0.0599    0.045
  29   0.8065   0.0642    0.097
  30   0.7939   0.0686    0.126
  31   0.7810   0.0730    0.167
  32   0.7679   0.0775    0.206
  33   0.7545   0.0820    0.257
  34   0.7409   0.0865    0.294
  35   0.7270   0.0911    0.345
  36   0.7129   0.0956    0.388
  37   0.6986   0.1001    0.437
  38   0.6841   0.1045    0.487
  39   0.6694   0.1088    0.532
  40   0.6545   0.1130    0.581
  41   0.6395   0.1172    0.632
  42   0.6243   0.1211    0.679
  43   0.6091   0.1249    0.728
  44   0.5937   0.1286    0.774
  45   0.5782   0.1320    0.824
  46   0.5627   0.1352    0.861
  47   0.5471   0.1382    0.913
  48   0.5314   0.1409    0.947
  49   0.5157   0.1434    0.994
  50   0.5000   0.1456    1.022
  51   0.4843   0.1475    1.057
  52   0.4686   0.1491    1.095
  53   0.4529   0.1505    1.114
  54   0.4373   0.1515    1.139
  55   0.4218   0.1522    1.164
  56   0.4063   0.1525    1.176
  57   0.3909   0.1526    1.188
  58   0.3757   0.1523    1.198
  59   0.3605   0.1517    1.204
  60   0.3455   0.1509    1.204
  61   0.3306   0.1497    1.197
  62   0.3159   0.1482    1.198
  63   0.3014   0.1464    1.188
  64   0.2871   0.1443    1.176
  65   0.2730   0.1420    1.160
  66   0.2591   0.1394    1.149
  67   0.2455   0.1366    1.128
  68   0.2321   0.1336    1.110
  69   0.2190   0.1303    1.099
  70   0.2061   0.1269    1.074
  71   0.1935   0.1233    1.061
  72   0.1813   0.1195    1.044
  73   0.1693   0.1156    1.031
  74   0.1577   0.1115    1.022
  75   0.1464   0.1074    1.014
  76   0.1355   0.1031    1.012
  77   0.1249   0.0988    1.026
  78   0.1147   0.0944    1.028
  79   0.1049   0.0900    1.049
  80   0.0955   0.0855    1.081
  81   0.0865   0.0810    1.117
  82   0.0778   0.0765    1.181
  83   0.0696   0.0720    1.242
  84   0.0618   0.0675    1.334
  85   0.0545   0.0631    1.436
  86   0.0476   0.0586    1.589
  87   0.0411   0.0542    1.742
  88   0.0351   0.0498    1.942
  89   0.0296   0.0455    2.194
  90   0.0245   0.0412    2.476
  91   0.0199   0.0369    2.829
  92   0.0157   0.0327    3.248
  93   0.0120   0.0285    3.691
  94   0.0089   0.0244    4.270
  95   0.0062   0.0203    4.830
  96   0.0039   0.0162    5.443
  97   0.0022   0.0121    6.058
  98   0.0010   0.0081    6.539
  99   0.0002   0.0040    6.889
 100   0.0000   0.0000    5.945
 101   0.0002  -0.0058    4.874
 102   0.0010  -0.0116    4.909
 103   0.0022  -0.0173    4.978
 104   0.0039  -0.0228    5.034
 105   0.0062  -0.0283    5.121
 106   0.0089  -0.0335    5.202
 107   0.0120  -0.0385    5.237
 108   0.0157  -0.0432    5.288
 109   0.0199  -0.0476    5.253
 110   0.0245  -0.0517    5.206
 111   0.0296  -0.0555    5.086
 112   0.0351  -0.0589    4.923
 113   0.0411  -0.0619    4.700
 114   0.0476  -0.0645    4.458
 115   0.0545  -0.0666    4.169
 116   0.0618  -0.0683    3.879
 117   0.0696  -0.0696    3.562
 118   0.0778  -0.0704    3.261
 119   0.0865  -0.0708    2.956
 120   0.0955  -0.0707    2.666
 121   0.1049  -0.0702    2.390
 122   0.1147  -0.0692    2.127
 123   0.1249  -0.0678    1.889
 124   0.1355  -0.0660    1.654
 125   0.1464  -0.0639    1.442
 126   0.1577  -0.0613    1.245
 127   0.1693  -0.0584    1.062
 128   0.1813  -0.0552    0.889
 129   0.1935  -0.0517    0.722
 130   0.2061  -0.0480    0.577
 131   0.2190  -0.0440    0.433
 132   0.2321  -0.0398    0.300
 133   0.2455  -0.0355    0.173
 134   0.2591  -0.0310    0.053
 135   0.2730  -0.0265   -0.052
 136   0.2871  -0.0219   -0.166
 137   0.3014  -0.0172   -0.263
 138   0.3159  -0.0126   -0.354
 139   0.3306  -0.0080   -0.449
 140   0.3455  -0.0035   -0.528
 141   0.3605   0.0009   -0.607
 142   0.3757   0.0051   -0.681
 143   0.3909   0.0092   -0.743
 144   0.4063   0.0132   -0.805
 145   0.4218   0.0169   -0.861
 146   0.4373   0.0204   -0.905
 147   0.4529   0.0236   -0.952
 148   0.4686   0.0266   -0.979
 149   0.4843   0.0293   -1.011
 150   0.5000   0.0318   -1.025
 151   0.5157   0.0339   -1.046
 152   0.5314   0.0357   -1.046
 153   0.5471   0.0373   -1.046
 154   0.5627   0.0386   -1.037
 155   0.5782   0.0395   -1.020
 156   0.5937   0.0402   -1.004
 157   0.6091   0.0407   -0.975
 158   0.6243   0.0408   -0.941
 159   0.6395   0.0407   -0.904
 160   0.6545   0.0404   -0.860
 161   0.6694   0.0399   -0.818
 162   0.6841   0.0391   -0.764
 163   0.6986   0.0382   -0.715
 164   0.7129   0.0371   -0.659
 165   0.7270   0.0358   -0.604
 166   0.7409   0.0345   -0.547
 167   0.7545   0.0330   -0.492
 168   0.7679   0.0314   -0.425
 169   0.7810   0.0298   -0.376
 170   0.7939   0.0281   -0.319
 171   0.8065   0.0263   -0.260
 172   0.8187   0.0246   -0.210
 173   0.8307   0.0229   -0.152
 174   0.8423   0.0211   -0.106
 175   0.8536   0.0194   -0.058
 176   0.8645   0.0178   -0.018
 177   0.8751   0.0162    0.037
 178   0.8853   0.0146    0.060
 179   0.8951   0.0132    0.097
 180   0.9045   0.0118    0.143
 181   0.9135   0.0104    0.153
 182   0.9222   0.0092    0.181
 183   0.9304   0.0081    0.207
 184   0.9382   0.0070    0.208
 185   0.9455   0.0060    0.235
 186   0.9524   0.0051    0.232
 187   0.9589   0.0043    0.243
 188   0.9649   0.0036    0.234
 189   0.9704   0.0030    0.226
 190   0.9755   0.0024    0.241
 191   0.9801   0.0019    0.193
 192   0.9843   0.0015    0.204
 193   0.9880   0.0011    0.175
 194   0.9911   0.0008    0.162
 195   0.9938   0.0006    0.154
 196   0.9961   0.0004    0.071
 197   0.9978   0.0002    0.115
 198   0.9990   0.0001    0.036
 199   0.9998   0.0000    0.160

 Maximum panel corner angle =  6.889   at  i,x,y  =  99   0.0002   0.0040

 Enter corner angle criterion for refinement (deg):   3.445
 Enter type of spline parameter (1=uniform, 2=arclength):   1
 Enter refinement x limits:  -0.10000   1.10000
 Number of points added:           50
 Max thickness =     0.175011  at x =   0.194
 Max camber    =     0.088672  at x =   0.500

 Maximum panel corner angle =  2.956   at  i,x,y  = 169   0.0865  -0.0708

.GDES   c>  
 Buffer airfoil is not identical to current airfoil

 XFOIL   c>  
 Blunt trailing edge.  Gap =  0.00026

 Paneling parameters used...
   Number of panel nodes       160
   Panel bunching parameter    1.000
   TE/LE panel density ratio   0.150
   Refined-area/LE panel density ratio    0.200
   Top    side refined area x/c limits  1.000 1.000
   Bottom side refined area x/c limits  1.000 1.000

 XFOIL   c>  
.OPERi   c>   Current iteration limit:          20

Enter new iteration limit   i>  
Enter new iteration limit   i>  
Enter new iteration limit   i>  
.OPERi   c>  
 M  =    0.0000
 Re =  0.3000E+06

.OPERv   c>  
 Sonic Cp =    -66.86      Sonic Q/Qinf =     9.138


.OPERv   c>  
 Polar  1 newly created for accumulation
 Airfoil archived with polar: 000127                                          

Enter  polar save filename  OR  <return> for no file   s>  
 New polar save file available

Enter  polar dump filename  OR  <return> for no file   s>  
 Polar dump file will NOT be written

 Polar accumulation enabled

.OPERva   c>   Calculating unit vorticity distributions ...
 Calculating wake trajectory ...
 Calculating source influence matrix ...

 Solving BL system ...

 Initializing BL ...
    side            1  ...
 MRCHUE: Inverse mode at  58     Hk =   3.973
 MRCHUE: Inverse mode at  59     Hk =   4.769
 MRCHUE: Inverse mode at  60     Hk =   5.550
 MRCHUE: Inverse mode at  61     Hk =   6.323
 MRCHUE: Inverse mode at  62     Hk =   7.093
 MRCHUE: Inverse mode at  63     Hk =   7.863
 MRCHUE: Inverse mode at  64     Hk =   8.635
 MRCHUE: Inverse mode at  65     Hk =   9.413
 MRCHUE: Inverse mode at  66     Hk =   6.695
 MRCHUE: Inverse mode at  67     Hk =   4.303
 MRCHUE: Inverse mode at  68     Hk =   2.780
 MRCHUE: Convergence failed at  84  side 1    Res =  0.7359E+01
    side            2  ...
 MRCHUE: Inverse mode at  31     Hk =   4.019
 MRCHUE: Inverse mode at  32     Hk =   4.744
 MRCHUE: Inverse mode at  33     Hk =   5.478
 MRCHUE: Inverse mode at  34     Hk =   6.233
 MRCHUE: Inverse mode at  35     Hk =   7.019
 MRCHUE: Inverse mode at  36     Hk =   7.843
 MRCHUE: Inverse mode at  37     Hk =   8.714
 MRCHUE: Inverse mode at  38     Hk =   9.639
 MRCHUE: Inverse mode at  39     Hk =   6.100
 MRCHUE: Inverse mode at  40     Hk =   3.253
 MRCHUE: Inverse mode at  41     Hk =   2.500
 MRCHUE: Inverse mode at  42     Hk =   2.500
 MRCHUE: Inverse mode at  43     Hk =   2.500
 MRCHUE: Inverse mode at  44     Hk =   2.500
 MRCHUE: Inverse mode at  45     Hk =   2.500
 MRCHUE: Inverse mode at  46     Hk =   2.500
 MRCHUE: Inverse mode at  47     Hk =   2.500
 MRCHUE: Inverse mode at  48     Hk =   2.500
 MRCHUE: Inverse mode at  49     Hk =   2.500
 MRCHUE: Inverse mode at  50     Hk =   2.500
 MRCHUE: Inverse mode at  51     Hk =   2.500
 MRCHUE: Inverse mode at  52     Hk =   2.500
 MRCHUE: Inverse mode at  53     Hk =   2.500
 MRCHUE: Inverse mode at  54     Hk =   2.500
 MRCHUE: Inverse mode at  55     Hk =   2.500
 MRCHUE: Convergence failed at  78  side 2    Res =  0.1067E+01

 MRCHDU: Convergence failed at  84  side 1    Res =  0.5977E+01
 Side 1  free  transition at x/c =  0.6137   66
 Side 2  free  transition at x/c =  0.2130   39

   1   rms: 0.5682E+00   max: -.1933E+01   D at   49  2   RLX: 0.259
       a =  2.000      CL =  1.1293
      Cm = -0.2340     CD =  0.00822   =>   CDf =  0.00644    CDp =  0.00178

 Side 1  free  transition at x/c =  0.6146   66
 Side 2  free  transition at x/c =  0.2110   39

   2   rms: 0.3453E+00   max: -.1251E+01   D at   53  2   RLX: 0.400
       a =  2.000      CL =  1.0924
      Cm = -0.2252     CD =  0.01135   =>   CDf =  0.00671    CDp =  0.00465

 Side 1  free  transition at x/c =  0.6154   66
 Side 2  free  transition at x/c =  0.2071   38

   3   rms: 0.1645E+00   max: 0.1055E+01   T at   38  2   RLX: 0.728
       a =  2.000      CL =  1.0657
      Cm = -0.2169     CD =  0.01629   =>   CDf =  0.00684    CDp =  0.00945

 Side 1  free  transition at x/c =  0.6154   66
 Side 2  free  transition at x/c =  0.1952   38

   4   rms: 0.6959E-01   max: -.3454E+00   D at   39  2
       a =  2.000      CL =  1.0637
      Cm = -0.2157     CD =  0.01820   =>   CDf =  0.00684    CDp =  0.01136

 Side 1  free  transition at x/c =  0.6145   66
 Side 2  free  transition at x/c =  0.1945   38

   5   rms: 0.1297E-01   max: 0.1108E+00   T at   38  2
       a =  2.000      CL =  1.0649
      Cm = -0.2157     CD =  0.01850   =>   CDf =  0.00704    CDp =  0.01146

 Side 1  free  transition at x/c =  0.6144   66
 Side 2  free  transition at x/c =  0.1934   37

   6   rms: 0.1493E-02   max: 0.2060E-01   T at   37  2
       a =  2.000      CL =  1.0647
      Cm = -0.2157     CD =  0.01855   =>   CDf =  0.00704    CDp =  0.01151

 Side 1  free  transition at x/c =  0.6144   66
 Side 2  free  transition at x/c =  0.1932   37

   7   rms: 0.5168E-04   max: 0.3044E-03   D at   38  2
       a =  2.000      CL =  1.0647
      Cm = -0.2157     CD =  0.01855   =>   CDf =  0.00703    CDp =  0.01151

 Point added to stored polar  1
 Point written to save file  000127M0.1.log                                  
 Dump file unspecified or not available
 Calculating wake trajectory ...
 Calculating source influence matrix ...

 Solving BL system ...

 Side 1  free  transition at x/c =  0.6144   66
 Side 2  free  transition at x/c =  0.1932   37

   1   rms: 0.1605E+00   max: -.1105E+01   T at   37  2   RLX: 0.453
       a =  3.000      CL =  1.1198
      Cm = -0.2161     CD =  0.01843   =>   CDf =  0.00704    CDp =  0.01139

 Side 1  free  transition at x/c =  0.6101   66
 Side 2  free  transition at x/c =  0.2032   38

   2   rms: 0.1323E+00   max: 0.1318E+01   D at   38  2
       a =  3.000      CL =  1.1856
      Cm = -0.2164     CD =  0.01854   =>   CDf =  0.00700    CDp =  0.01154

 Side 1  free  transition at x/c =  0.6057   66
 Side 2  free  transition at x/c =  0.2074   37

   3   rms: 0.2015E-01   max: 0.1283E+00   D at   37  2
       a =  3.000      CL =  1.1772
      Cm = -0.2152     CD =  0.01878   =>   CDf =  0.00708    CDp =  0.01170

 Side 1  free  transition at x/c =  0.6036   66
 Side 2  free  transition at x/c =  0.2067   37

   4   rms: 0.1138E-02   max: 0.5993E-02   D at   68  1
       a =  3.000      CL =  1.1780
      Cm = -0.2153     CD =  0.01874   =>   CDf =  0.00699    CDp =  0.01174

 Side 1  free  transition at x/c =  0.6036   66
 Side 2  free  transition at x/c =  0.2067   37

   5   rms: 0.8817E-05   max: -.5209E-04   D at   38  2
       a =  3.000      CL =  1.1780
      Cm = -0.2153     CD =  0.01874   =>   CDf =  0.00699    CDp =  0.01174

 Point added to stored polar  1
 Point written to save file  000127M0.1.log                                  
 Dump file unspecified or not available
 Calculating wake trajectory ...
 Calculating source influence matrix ...

 Solving BL system ...

 Side 1  free  transition at x/c =  0.6036   66
 Side 2  free  transition at x/c =  0.2067   37

   1   rms: 0.1497E+00   max: -.8994E+00   T at   37  2   RLX: 0.556
       a =  4.000      CL =  1.2370
      Cm = -0.2146     CD =  0.01890   =>   CDf =  0.00679    CDp =  0.01210

 Side 1  free  transition at x/c =  0.5955   67
 Side 2  free  transition at x/c =  0.2182   37

   2   rms: 0.1041E+00   max: 0.1033E+01   D at   37  2
       a =  4.000      CL =  1.2905
      Cm = -0.2147     CD =  0.01881   =>   CDf =  0.00705    CDp =  0.01176

 Side 1  free  transition at x/c =  0.5922   67
 Side 2  free  transition at x/c =  0.2217   37

   3   rms: 0.9164E-02   max: 0.6320E-01   D at   38  2
       a =  4.000      CL =  1.2912
      Cm = -0.2148     CD =  0.01883   =>   CDf =  0.00697    CDp =  0.01186

 Side 1  free  transition at x/c =  0.5920   67
 Side 2  free  transition at x/c =  0.2214   37

   4   rms: 0.3368E-03   max: 0.2955E-02   D at   38  2
       a =  4.000      CL =  1.2912
      Cm = -0.2148     CD =  0.01883   =>   CDf =  0.00696    CDp =  0.01187

 Side 1  free  transition at x/c =  0.5920   67
 Side 2  free  transition at x/c =  0.2214   37

   5   rms: 0.1868E-05   max: 0.1053E-04   D at   50  2
       a =  4.000      CL =  1.2912
      Cm = -0.2148     CD =  0.01883   =>   CDf =  0.00696    CDp =  0.01187

 Point added to stored polar  1
 Point written to save file  000127M0.1.log                                  
 Dump file unspecified or not available
 Calculating wake trajectory ...
 Calculating source influence matrix ...

 Solving BL system ...

 Side 1  free  transition at x/c =  0.5920   67
 Side 2  free  transition at x/c =  0.2214   37

   1   rms: 0.1501E+00   max: -.8294E+00   T at   37  2   RLX: 0.603
       a =  5.000      CL =  1.3642
      Cm = -0.2152     CD =  0.01886   =>   CDf =  0.00674    CDp =  0.01212

 Side 1  free  transition at x/c =  0.5868   67
 Side 2  free  transition at x/c =  0.2347   37

   2   rms: 0.8035E-01   max: 0.7429E+00   D at   37  2
       a =  5.000      CL =  1.3925
      Cm = -0.2126     CD =  0.01957   =>   CDf =  0.00680    CDp =  0.01276

 Side 1  free  transition at x/c =  0.5795   68
 Side 2  free  transition at x/c =  0.2371   36

   3   rms: 0.7723E-02   max: -.7218E-01   D at   69  1
       a =  5.000      CL =  1.3975
      Cm = -0.2134     CD =  0.01946   =>   CDf =  0.00681    CDp =  0.01264

 Side 1  free  transition at x/c =  0.5801   68
 Side 2  free  transition at x/c =  0.2374   36

   4   rms: 0.2497E-03   max: 0.2532E-02   D at   69  1
       a =  5.000      CL =  1.3975
      Cm = -0.2134     CD =  0.01946   =>   CDf =  0.00681    CDp =  0.01265

 Side 1  free  transition at x/c =  0.5800   68
 Side 2  free  transition at x/c =  0.2374   36

   5   rms: 0.3989E-05   max: -.1765E-04   D at   41  2
       a =  5.000      CL =  1.3975
      Cm = -0.2134     CD =  0.01946   =>   CDf =  0.00681    CDp =  0.01265

 Point added to stored polar  1
 Point written to save file  000127M0.1.log                                  
 Dump file unspecified or not available
 Calculating wake trajectory ...
 Calculating source influence matrix ...

 Solving BL system ...

 Side 1  free  transition at x/c =  0.5800   68
 Side 2  free  transition at x/c =  0.2374   36

   1   rms: 0.1387E+00   max: -.7336E+00   T at   36  2   RLX: 0.682
       a =  6.000      CL =  1.4697
      Cm = -0.2123     CD =  0.01983   =>   CDf =  0.00658    CDp =  0.01325

 Side 1  free  transition at x/c =  0.5719   69
 Side 2  free  transition at x/c =  0.2519   36

   2   rms: 0.6382E-01   max: 0.5158E+00   D at   36  2
       a =  6.000      CL =  1.5136
      Cm = -0.2132     CD =  0.01975   =>   CDf =  0.00685    CDp =  0.01290

 Side 1  free  transition at x/c =  0.5695   69
 Side 2  free  transition at x/c =  0.2556   36

   3   rms: 0.4444E-02   max: -.3632E-01   D at   36  2
       a =  6.000      CL =  1.5139
      Cm = -0.2133     CD =  0.01980   =>   CDf =  0.00681    CDp =  0.01299

 Side 1  free  transition at x/c =  0.5693   69
 Side 2  free  transition at x/c =  0.2561   36

   4   rms: 0.4955E-04   max: 0.4891E-03   T at   69  1
       a =  6.000      CL =  1.5139
      Cm = -0.2133     CD =  0.01980   =>   CDf =  0.00683    CDp =  0.01298

 Point added to stored polar  1
 Point written to save file  000127M0.1.log                                  
 Dump file unspecified or not available
 Calculating wake trajectory ...
 Calculating source influence matrix ...

 Solving BL system ...

 Side 1  free  transition at x/c =  0.5693   69
 Side 2  free  transition at x/c =  0.2561   36

   1   rms: 0.1498E+00   max: -.7735E+00   T at   36  2   RLX: 0.646
       a =  7.000      CL =  1.5946
      Cm = -0.2142     CD =  0.02055   =>   CDf =  0.00659    CDp =  0.01396

 Side 1  free  transition at x/c =  0.5638   69
 Side 2  free  transition at x/c =  0.2728   36

   2   rms: 0.5616E-01   max: 0.4738E+00   D at   36  2
       a =  7.000      CL =  1.5956
      Cm = -0.2083     CD =  0.02130   =>   CDf =  0.00666    CDp =  0.01465

 Side 1  free  transition at x/c =  0.5546   69
 Side 2  free  transition at x/c =  0.2743   36

   3   rms: 0.1773E-01   max: -.9318E-01   D at   70  1
       a =  7.000      CL =  1.6105
      Cm = -0.2104     CD =  0.02079   =>   CDf =  0.00657    CDp =  0.01422

 Side 1  free  transition at x/c =  0.5565   69
 Side 2  free  transition at x/c =  0.2755   36

   4   rms: 0.1320E-02   max: -.1136E-01   D at   90  1
       a =  7.000      CL =  1.6096
      Cm = -0.2103     CD =  0.02079   =>   CDf =  0.00653    CDp =  0.01426

 Side 1  free  transition at x/c =  0.5565   69
 Side 2  free  transition at x/c =  0.2754   36

   5   rms: 0.9703E-05   max: -.1288E-03   D at   90  1
       a =  7.000      CL =  1.6096
      Cm = -0.2103     CD =  0.02079   =>   CDf =  0.00653    CDp =  0.01426

 Point added to stored polar  1
 Point written to save file  000127M0.1.log                                  
 Dump file unspecified or not available
 Calculating wake trajectory ...
 Calculating source influence matrix ...

 Solving BL system ...

 Side 1  free  transition at x/c =  0.5565   69
 Side 2  free  transition at x/c =  0.2754   36

   1   rms: 0.1397E+00   max: -.7502E+00   T at   36  2   RLX: 0.666
       a =  8.000      CL =  1.6838
      Cm = -0.2096     CD =  0.02104   =>   CDf =  0.00628    CDp =  0.01475

 Side 1  free  transition at x/c =  0.5459   69
 Side 2  free  transition at x/c =  0.2930   36

   2   rms: 0.5036E-01   max: 0.3869E+00   D at   36  2
       a =  8.000      CL =  1.7002
      Cm = -0.2061     CD =  0.02132   =>   CDf =  0.00626    CDp =  0.01505

 Side 1  free  transition at x/c =  0.5374   70
 Side 2  free  transition at x/c =  0.2965   35

   3   rms: 0.1720E-01   max: -.1092E+00   D at   71  1
       a =  8.000      CL =  1.7075
      Cm = -0.2070     CD =  0.02111   =>   CDf =  0.00641    CDp =  0.01469

 Side 1  free  transition at x/c =  0.5389   70
 Side 2  free  transition at x/c =  0.2976   35

   4   rms: 0.2362E-03   max: 0.1893E-02   T at   70  1
       a =  8.000      CL =  1.7076
      Cm = -0.2070     CD =  0.02113   =>   CDf =  0.00640    CDp =  0.01473

 Side 1  free  transition at x/c =  0.5389   70
 Side 2  free  transition at x/c =  0.2976   35

   5   rms: 0.3087E-05   max: 0.1549E-04   D at   76  2
       a =  8.000      CL =  1.7076
      Cm = -0.2070     CD =  0.02113   =>   CDf =  0.00640    CDp =  0.01473

 Point added to stored polar  1
 Point written to save file  000127M0.1.log                                  
 Dump file unspecified or not available
 Calculating wake trajectory ...
 Calculating source influence matrix ...

 Solving BL system ...

 Side 1  free  transition at x/c =  0.5389   70
 Side 2  free  transition at x/c =  0.2976   35

   1   rms: 0.1452E+00   max: -.7861E+00   T at   35  2   RLX: 0.636
       a =  9.000      CL =  1.7704
      Cm = -0.2046     CD =  0.02064   =>   CDf =  0.00615    CDp =  0.01450

 Side 1  free  transition at x/c =  0.5274   70
 Side 2  free  transition at x/c =  0.3163   35

   2   rms: 0.5711E-01   max: 0.4731E+00   D at   35  2
       a =  9.000      CL =  1.7707
      Cm = -0.1987     CD =  0.02218   =>   CDf =  0.00639    CDp =  0.01579

 Side 1  free  transition at x/c =  0.5149   70
 Side 2  free  transition at x/c =  0.3191   35

   3   rms: 0.3383E-01   max: -.1924E+00   D at   90  1
       a =  9.000      CL =  1.7914
      Cm = -0.2014     CD =  0.02129   =>   CDf =  0.00636    CDp =  0.01493

 Side 1  free  transition at x/c =  0.5172   70
 Side 2  free  transition at x/c =  0.3215   35

   4   rms: 0.1221E-02   max: 0.1129E-01   D at   91  1
       a =  9.000      CL =  1.7919
      Cm = -0.2016     CD =  0.02148   =>   CDf =  0.00629    CDp =  0.01519

 Side 1  free  transition at x/c =  0.5170   70
 Side 2  free  transition at x/c =  0.3215   35

   5   rms: 0.3629E-04   max: -.1791E-03   D at   77  2
       a =  9.000      CL =  1.7919
      Cm = -0.2016     CD =  0.02148   =>   CDf =  0.00630    CDp =  0.01518

 Point added to stored polar  1
 Point written to save file  000127M0.1.log                                  
 Dump file unspecified or not available
 Calculating wake trajectory ...
 Calculating source influence matrix ...

 Solving BL system ...

 Side 1  free  transition at x/c =  0.5170   70
 Side 2  free  transition at x/c =  0.3215   35

   1   rms: 0.1378E+00   max: -.8433E+00   T at   35  2   RLX: 0.593
       a = 10.000      CL =  1.8426
      Cm = -0.1983     CD =  0.02152   =>   CDf =  0.00603    CDp =  0.01549

 MRCHDU: Convergence failed at  36  side 2    Res =  0.1559E+01
 MRCHDU: Convergence failed at  37  side 2    Res =  0.1973E+01
 MRCHDU: Convergence failed at  38  side 2    Res =  0.2056E+01
 MRCHDU: Convergence failed at  39  side 2    Res =  0.3374E+01
 MRCHDU: Convergence failed at  40  side 2    Res =  0.5686E+01
 MRCHDU: Convergence failed at  41  side 2    Res =  0.1003E+02
 MRCHDU: Convergence failed at  42  side 2    Res =  0.1941E+02
 MRCHDU: Convergence failed at  43  side 2    Res =  0.5103E+02
 MRCHDU: Convergence failed at  44  side 2    Res =  0.1284E+04
 MRCHDU: Convergence failed at  45  side 2    Res =  0.7119E+02
 MRCHDU: Convergence failed at  46  side 2    Res =  0.4646E+02
 MRCHDU: Convergence failed at  47  side 2    Res =  0.4094E+02
 MRCHDU: Convergence failed at  48  side 2    Res =  0.4741E+02
 MRCHDU: Convergence failed at  49  side 2    Res =  0.7275E+02
 MRCHDU: Convergence failed at  50  side 2    Res =  0.7726E+03
 MRCHDU: Convergence failed at  51  side 2    Res =  0.3666E+02
 MRCHDU: Convergence failed at  52  side 2    Res =  0.1415E+02
 MRCHDU: Convergence failed at  53  side 2    Res =  0.7318E+01
 MRCHDU: Convergence failed at  54  side 2    Res =  0.4198E+01
 MRCHDU: Convergence failed at  55  side 2    Res =  0.2514E+01
 MRCHDU: Convergence failed at  56  side 2    Res =  0.1692E+01
 Side 1  free  transition at x/c =  0.5041   70
 Side 2  free  transition at x/c =  0.3428   35

   2   rms: 0.1659E+00   max: 0.9216E+00   T at   37  2   RLX: 0.641
       a = 10.000      CL =  1.8178
      Cm = -0.1884     CD =  0.02223   =>   CDf =  0.00529    CDp =  0.01694

 Side 1  free  transition at x/c =  0.4955   70
 Side 2  free  transition at x/c =  0.3430   35

   3   rms: 0.6915E-01   max: 0.4109E+00   D at   39  2
       a = 10.000      CL =  1.8516
      Cm = -0.1932     CD =  0.02273   =>   CDf =  0.00632    CDp =  0.01640

 Side 1  free  transition at x/c =  0.4930   70
 Side 2  free  transition at x/c =  0.3463   36

   4   rms: 0.8260E-02   max: -.3918E-01   D at   39  2
       a = 10.000      CL =  1.8573
      Cm = -0.1938     CD =  0.02263   =>   CDf =  0.00623    CDp =  0.01640

 Side 1  free  transition at x/c =  0.4927   69
 Side 2  free  transition at x/c =  0.3462   35

   5   rms: 0.1146E-02   max: 0.7609E-02   D at   89  1
       a = 10.000      CL =  1.8564
      Cm = -0.1937     CD =  0.02267   =>   CDf =  0.00625    CDp =  0.01642

 Side 1  free  transition at x/c =  0.4927   69
 Side 2  free  transition at x/c =  0.3461   35

   6   rms: 0.2479E-04   max: 0.3060E-03   D at   89  1
       a = 10.000      CL =  1.8564
      Cm = -0.1937     CD =  0.02267   =>   CDf =  0.00624    CDp =  0.01642

 Point added to stored polar  1
 Point written to save file  000127M0.1.log                                  
 Dump file unspecified or not available
 Calculating wake trajectory ...
 Calculating source influence matrix ...

 Solving BL system ...

 Side 1  free  transition at x/c =  0.4927   69
 Side 2  free  transition at x/c =  0.3461   35

   1   rms: 0.1795E+00   max: 0.7942E+00   D at   87  1   RLX: 0.723
       a = 11.000      CL =  1.8155
      Cm = -0.1783     CD =  0.02719   =>   CDf =  0.00626    CDp =  0.02093

 Side 1  free  transition at x/c =  0.4682   68
 Side 2  free  transition at x/c =  0.3596   36

   2   rms: 0.7570E-01   max: 0.7308E+00   D at   36  2
       a = 11.000      CL =  1.8488
      Cm = -0.1796     CD =  0.02781   =>   CDf =  0.00579    CDp =  0.02201

 Side 1  free  transition at x/c =  0.4644   69
 Side 2  free  transition at x/c =  0.3654   35

   3   rms: 0.2888E-01   max: -.1300E+00   D at   87  1
       a = 11.000      CL =  1.8714
      Cm = -0.1821     CD =  0.02702   =>   CDf =  0.00581    CDp =  0.02121

 Side 1  free  transition at x/c =  0.4620   69
 Side 2  free  transition at x/c =  0.3690   36

   4   rms: 0.5398E-02   max: 0.9902E-01   D at   36  2
       a = 11.000      CL =  1.8718
      Cm = -0.1822     CD =  0.02707   =>   CDf =  0.00589    CDp =  0.02119

 Side 1  free  transition at x/c =  0.4620   69
 Side 2  free  transition at x/c =  0.3686   36

   5   rms: 0.5454E-03   max: 0.6547E-02   D at   36  2
       a = 11.000      CL =  1.8719
      Cm = -0.1822     CD =  0.02707   =>   CDf =  0.00588    CDp =  0.02119

 Side 1  free  transition at x/c =  0.4620   69
 Side 2  free  transition at x/c =  0.3686   36

   6   rms: 0.3026E-05   max: 0.1806E-04   D at   36  2
       a = 11.000      CL =  1.8719
      Cm = -0.1822     CD =  0.02707   =>   CDf =  0.00588    CDp =  0.02119

 Point added to stored polar  1
 Point written to save file  000127M0.1.log                                  
 Dump file unspecified or not available
 Calculating wake trajectory ...
 Calculating source influence matrix ...

 Solving BL system ...

 Side 1  free  transition at x/c =  0.4620   69
 Side 2  free  transition at x/c =  0.3686   36

   1   rms: 0.1419E+00   max: -.9107E+00   T at   36  2   RLX: 0.549
       a = 12.000      CL =  1.8953
      Cm = -0.1780     CD =  0.02914   =>   CDf =  0.00590    CDp =  0.02324

 Side 1  free  transition at x/c =  0.4432   68
 Side 2  free  transition at x/c =  0.3833   36

   2   rms: 0.7669E-01   max: -.3398E+00   D at   68  1
       a = 12.000      CL =  1.8835
      Cm = -0.1724     CD =  0.03347   =>   CDf =  0.00555    CDp =  0.02792

 Side 1  free  transition at x/c =  0.4259   68
 Side 2  free  transition at x/c =  0.3967   36

   3   rms: 0.4106E-01   max: 0.5133E+00   D at    2  1
       a = 12.000      CL =  1.8863
      Cm = -0.1729     CD =  0.03338   =>   CDf =  0.00569    CDp =  0.02769

 Side 1  free  transition at x/c =  0.4272   68
 Side 2  free  transition at x/c =  0.3946   36

   4   rms: 0.5202E-02   max: 0.4799E-01   D at   36  2
       a = 12.000      CL =  1.8885
      Cm = -0.1731     CD =  0.03328   =>   CDf =  0.00561    CDp =  0.02767

 Side 1  free  transition at x/c =  0.4265   68
 Side 2  free  transition at x/c =  0.3941   36

   5   rms: 0.1295E-03   max: -.5880E-03   D at   38  2
       a = 12.000      CL =  1.8886
      Cm = -0.1731     CD =  0.03328   =>   CDf =  0.00564    CDp =  0.02765

 Side 1  free  transition at x/c =  0.4264   68
 Side 2  free  transition at x/c =  0.3941   36

   6   rms: 0.4561E-05   max: -.3886E-04   D at    2  1
       a = 12.000      CL =  1.8886
      Cm = -0.1731     CD =  0.03328   =>   CDf =  0.00564    CDp =  0.02765

 Point added to stored polar  1
 Point written to save file  000127M0.1.log                                  
 Dump file unspecified or not available
 Calculating wake trajectory ...
 Calculating source influence matrix ...

 Solving BL system ...

 Side 1  free  transition at x/c =  0.4264   68
 Side 2  free  transition at x/c =  0.3941   36

   1   rms: 0.1402E+00   max: -.6767E+00   T at   36  2   RLX: 0.739
       a = 13.000      CL =  1.8929
      Cm = -0.1665     CD =  0.03916   =>   CDf =  0.00566    CDp =  0.03350

 Side 1  free  transition at x/c =  0.3860   66
 Side 2  free  transition at x/c =  0.4099   37

   2   rms: 0.8265E-01   max: -.4985E+00   T at   37  2
       a = 13.000      CL =  1.8767
      Cm = -0.1638     CD =  0.04338   =>   CDf =  0.00575    CDp =  0.03763

 Side 1  free  transition at x/c =  0.3731   65
 Side 2  free  transition at x/c =  0.4220   37

   3   rms: 0.2259E-01   max: -.2188E+00   D at   37  2
       a = 13.000      CL =  1.8764
      Cm = -0.1639     CD =  0.04334   =>   CDf =  0.00558    CDp =  0.03775

 Side 1  free  transition at x/c =  0.3730   65
 Side 2  free  transition at x/c =  0.4198   37

   4   rms: 0.1119E-02   max: 0.1288E-01   D at   81  1
       a = 13.000      CL =  1.8759
      Cm = -0.1638     CD =  0.04338   =>   CDf =  0.00555    CDp =  0.03783

 Side 1  free  transition at x/c =  0.3731   65
 Side 2  free  transition at x/c =  0.4195   37

   5   rms: 0.2597E-04   max: 0.1498E-03   D at   76  2
       a = 13.000      CL =  1.8759
      Cm = -0.1638     CD =  0.04337   =>   CDf =  0.00555    CDp =  0.03783

 Point added to stored polar  1
 Point written to save file  000127M0.1.log                                  
 Dump file unspecified or not available
 Calculating wake trajectory ...
 Calculating source influence matrix ...

 Solving BL system ...

 Side 1  free  transition at x/c =  0.3731   65
 Side 2  free  transition at x/c =  0.4195   37

   1   rms: 0.1650E+00   max: 0.1210E+01   C at   65  1   RLX: 0.619
       a = 14.000      CL =  1.8529
      Cm = -0.1584     CD =  0.05233   =>   CDf =  0.00557    CDp =  0.04677

 Side 1  free  transition at x/c =  0.3132   61
 Side 2  free  transition at x/c =  0.4356   38

   2   rms: 0.7342E-01   max: 0.5444E+00   D at   80  1
       a = 14.000      CL =  1.8252
      Cm = -0.1553     CD =  0.05992   =>   CDf =  0.00557    CDp =  0.05435

 Side 1  free  transition at x/c =  0.2547   59
 Side 2  free  transition at x/c =  0.4416   37

   3   rms: 0.3829E-01   max: -.6157E+00   C at   59  1   RLX: 0.812
       a = 14.000      CL =  1.8115
      Cm = -0.1559     CD =  0.06094   =>   CDf =  0.00646    CDp =  0.05448

 Side 1  free  transition at x/c =  0.2689   59
 Side 2  free  transition at x/c =  0.4393   38

   4   rms: 0.1169E-01   max: -.2230E+00   C at   59  1
       a = 14.000      CL =  1.8062
      Cm = -0.1545     CD =  0.06119   =>   CDf =  0.00600    CDp =  0.05519

 Side 1  free  transition at x/c =  0.2753   59
 Side 2  free  transition at x/c =  0.4389   38

   5   rms: 0.1142E-02   max: -.2305E-01   C at   59  1
       a = 14.000      CL =  1.8058
      Cm = -0.1544     CD =  0.06121   =>   CDf =  0.00592    CDp =  0.05530

 Side 1  free  transition at x/c =  0.2761   59
 Side 2  free  transition at x/c =  0.4388   38

   6   rms: 0.1960E-04   max: -.4087E-03   C at   59  1
       a = 14.000      CL =  1.8058
      Cm = -0.1544     CD =  0.06121   =>   CDf =  0.00591    CDp =  0.05531

 Point added to stored polar  1
 Point written to save file  000127M0.1.log                                  
 Dump file unspecified or not available
 Calculating wake trajectory ...
 Calculating source influence matrix ...

 Solving BL system ...

 Side 1  free  transition at x/c =  0.2761   59
 Side 2  free  transition at x/c =  0.4388   38

   1   rms: 0.2493E+00   max: 0.3709E+01   C at   59  1   RLX: 0.404
       a = 15.000      CL =  1.7658
      Cm = -0.1514     CD =  0.07139   =>   CDf =  0.00565    CDp =  0.06574

 Side 1  free  transition at x/c =  0.2140   56
 Side 2  free  transition at x/c =  0.4443   37

   2   rms: 0.1434E+00   max: 0.1967E+01   C at   56  1   RLX: 0.763
       a = 15.000      CL =  1.7205
      Cm = -0.1497     CD =  0.08334   =>   CDf =  0.00638    CDp =  0.07695

 Side 1  free  transition at x/c =  0.1626   53
 Side 2  free  transition at x/c =  0.4513   38

   3   rms: 0.4335E-01   max: 0.3755E+00   D at   76  1
       a = 15.000      CL =  1.6919
      Cm = -0.1481     CD =  0.08808   =>   CDf =  0.00693    CDp =  0.08115

 Side 1  free  transition at x/c =  0.1603   52
 Side 2  free  transition at x/c =  0.4493   39

   4   rms: 0.1264E-01   max: -.2087E+00   T at    2  2
       a = 15.000      CL =  1.6905
      Cm = -0.1480     CD =  0.08727   =>   CDf =  0.00654    CDp =  0.08073

 Side 1  free  transition at x/c =  0.1612   52
 Side 2  free  transition at x/c =  0.4489   39

   5   rms: 0.7724E-03   max: -.9903E-02   D at    4  2
       a = 15.000      CL =  1.6904
      Cm = -0.1479     CD =  0.08720   =>   CDf =  0.00653    CDp =  0.08068

 Side 1  free  transition at x/c =  0.1612   52
 Side 2  free  transition at x/c =  0.4489   39

   6   rms: 0.6130Got result {'DD': 0.01835, 'Dmin': 0.01855, 'LL': -1.0602}
Completed successfully in 1.68 seconds. [{'DD': 0.01835, 'Dmin': 0.01855, 'LL': -1.0602}]
E-05   max: -.1080E-03   D at    2  2
       a = 15.000      CL =  1.6904
      Cm = -0.1479     CD =  0.08720   =>   CDf =  0.00653    CDp =  0.08068

 Point added to stored polar  1
 Point written to save file  000127M0.1.log                                  
 Dump file unspecified or not available

.OPERva   c>  
 XFOIL   c>  
