Job launching after 0.45 seconds in submission.
Running python job.
Changed into dir /home/simonx/Documents/Udacity/Projects/capstone/PESM_NSGA2_CST_XFoil
Importing evaluationFunctionXFoil.py
Running evaluationFunctionXFoil.main()
0
1
2
0.04
resp: 
 ===================================================
  XFOIL Version 6.97
  Copyright (C) 2000   Mark Drela, Harold Youngren

  This software comes with ABSOLUTELY NO WARRANTY,
    subject to the GNU General Public License.

  Caveat computor
 ===================================================

 File  xfoil.def  not found

   QUIT    Exit program

  .OPER    Direct operating point(s)
  .MDES    Complex mapping design routine
  .QDES    Surface speed design routine
  .GDES    Geometry design routine

   SAVE f  Write airfoil to labeled coordinate file
   PSAV f  Write airfoil to plain coordinate file
   ISAV f  Write airfoil to ISES coordinate file
   MSAV f  Write airfoil to MSES coordinate file
   REVE    Reverse written-airfoil node ordering
   DELI i  Change written-airfoil file delimiters

   LOAD f  Read buffer airfoil from coordinate file
   NACA i  Set NACA 4,5-digit airfoil and buffer airfoil
   INTE    Set buffer airfoil by interpolating two airfoils
   NORM    Buffer airfoil normalization toggle
   HALF    Halve the number of points in buffer airfoil
   XYCM rr Change CM reference location, currently  0.25000 0.00000

   BEND    Display structural properties of current airfoil

   PCOP    Set current-airfoil panel nodes directly from buffer airfoil points
   PANE    Set current-airfoil panel nodes ( 160 ) based on curvature
  .PPAR    Show/change paneling

  .PLOP    Plotting options

   WDEF f  Write  current-settings file
   RDEF f  Reread current-settings file
   NAME s  Specify new airfoil name
   NINC    Increment name version number

   Z       Zoom    | (available in all menus)
   U       Unzoom  | 

 XFOIL   c>   ...............................................

  G raphics-enable flag:        T
  S ize of plot object          10.00"
  A spect ratio of plot object   0.5500
  P age dimensions              11.00 x  8.50"
  M argins from page edges       0.00",  0.00"
  F ont size (relative)          0.0150
  W indow/screen size fraction   0.8000
  B lowup input method:        Cursor    
  O rientation of plot:        Landscape 
  C olor PostScript output?     F

      Option, Value   (or <Return>)    c>   ...............................................

  G raphics-enable flag:        F
  S ize of plot object          10.00"
  A spect ratio of plot object   0.5500
  P age dimensions              11.00 x  8.50"
  M argins from page edges       0.00",  0.00"
  F ont size (relative)          0.0150
  W indow/screen size fraction   0.8000
  B lowup input method:        Cursor    
  O rientation of plot:        Landscape 
  C olor PostScript output?     F

      Option, Value   (or <Return>)    c>  
 XFOIL   c>  
 Labeled airfoil file.  Name:  000178                                          

 Number of input coordinate points: 200
 Clockwise ordering
 Max thickness =     0.156152  at x =   0.219
 Max camber    =     0.049140  at x =   0.376

  LE  x,y  =  -0.00001   0.00076  |   Chord =   0.99989
  TE  x,y  =   0.99988   0.00005  |

 Current airfoil nodes set from buffer airfoil nodes ( 200 )

 XFOIL   c>  
 You are working with the buffer airfoil

.GDES   c>  
  i       x        y      angle
   2   0.9990   0.0004    0.056
   3   0.9978   0.0010    0.219
   4   0.9961   0.0017    0.225
   5   0.9938   0.0027    0.327
   6   0.9911   0.0038    0.360
   7   0.9880   0.0051    0.394
   8   0.9843   0.0066    0.490
   9   0.9801   0.0082    0.500
  10   0.9755   0.0100    0.558
  11   0.9704   0.0119    0.587
  12   0.9649   0.0139    0.629
  13   0.9589   0.0160    0.653
  14   0.9524   0.0182    0.681
  15   0.9455   0.0205    0.682
  16   0.9382   0.0228    0.704
  17   0.9304   0.0251    0.705
  18   0.9222   0.0274    0.701
  19   0.9135   0.0297    0.692
  20   0.9045   0.0321    0.673
  21   0.8951   0.0344    0.657
  22   0.8853   0.0367    0.624
  23   0.8751   0.0390    0.598
  24   0.8645   0.0412    0.552
  25   0.8536   0.0434    0.519
  26   0.8423   0.0456    0.477
  27   0.8307   0.0477    0.417
  28   0.8187   0.0498    0.382
  29   0.8065   0.0518    0.320
  30   0.7939   0.0539    0.280
  31   0.7810   0.0559    0.221
  32   0.7679   0.0580    0.174
  33   0.7545   0.0600    0.128
  34   0.7409   0.0620    0.086
  35   0.7270   0.0641    0.035
  36   0.7129   0.0661    0.008
  37   0.6986   0.0682   -0.032
  38   0.6841   0.0704   -0.063
  39   0.6694   0.0725   -0.080
  40   0.6545   0.0748   -0.099
  41   0.6395   0.0770   -0.111
  42   0.6243   0.0793   -0.115
  43   0.6091   0.0817   -0.117
  44   0.5937   0.0841   -0.102
  45   0.5782   0.0866   -0.093
  46   0.5627   0.0891   -0.067
  47   0.5471   0.0916   -0.045
  48   0.5314   0.0942   -0.007
  49   0.5157   0.0968    0.030
  50   0.5000   0.0993    0.075
  51   0.4843   0.1018    0.130
  52   0.4686   0.1043    0.179
  53   0.4529   0.1068    0.243
  54   0.4373   0.1091    0.308
  55   0.4218   0.1114    0.373
  56   0.4063   0.1136    0.447
  57   0.3909   0.1156    0.516
  58   0.3757   0.1174    0.597
  59   0.3605   0.1191    0.674
  60   0.3455   0.1206    0.745
  61   0.3306   0.1219    0.831
  62   0.3159   0.1230    0.908
  63   0.3014   0.1238    0.982
  64   0.2871   0.1243    1.058
  65   0.2730   0.1246    1.129
  66   0.2591   0.1246    1.209
  67   0.2455   0.1244    1.266
  68   0.2321   0.1238    1.337
  69   0.2190   0.1229    1.393
  70   0.2061   0.1218    1.450
  71   0.1935   0.1203    1.499
  72   0.1813   0.1185    1.544
  73   0.1693   0.1165    1.595
  74   0.1577   0.1142    1.629
  75   0.1464   0.1116    1.665
  76   0.1355   0.1088    1.703
  77   0.1249   0.1057    1.745
  78   0.1147   0.1024    1.768
  79   0.1049   0.0989    1.821
  80   0.0955   0.0951    1.848
  81   0.0865   0.0912    1.906
  82   0.0778   0.0871    1.960
  83   0.0696   0.0829    2.033
  84   0.0618   0.0785    2.104
  85   0.0545   0.0740    2.199
  86   0.0476   0.0694    2.331
  87   0.0411   0.0647    2.455
  88   0.0351   0.0600    2.623
  89   0.0296   0.0551    2.806
  90   0.0245   0.0503    3.031
  91   0.0199   0.0453    3.283
  92   0.0157   0.0404    3.569
  93   0.0120   0.0354    3.858
  94   0.0089   0.0303    4.205
  95   0.0062   0.0253    4.530
  96   0.0039   0.0203    4.844
  97   0.0022   0.0152    5.150
  98   0.0010   0.0101    5.368
  99   0.0002   0.0051    5.520
 100   0.0000   0.0000    8.140
 101   0.0002  -0.0026   10.400
 102   0.0010  -0.0053    9.664
 103   0.0022  -0.0079    8.659
 104   0.0039  -0.0104    7.546
 105   0.0062  -0.0129    6.524
 106   0.0089  -0.0153    5.621
 107   0.0120  -0.0176    4.834
 108   0.0157  -0.0199    4.206
 109   0.0199  -0.0220    3.649
 110   0.0245  -0.0240    3.200
 111   0.0296  -0.0259    2.825
 112   0.0351  -0.0277    2.511
 113   0.0411  -0.0293    2.232
 114   0.0476  -0.0307    1.999
 115   0.0545  -0.0321    1.790
 116   0.0618  -0.0332    1.611
 117   0.0696  -0.0342    1.454
 118   0.0778  -0.0351    1.300
 119   0.0865  -0.0358    1.180
 120   0.0955  -0.0363    1.066
 121   0.1049  -0.0367    0.957
 122   0.1147  -0.0370    0.867
 123   0.1249  -0.0371    0.784
 124   0.1355  -0.0370    0.700
 125   0.1464  -0.0368    0.642
 126   0.1577  -0.0365    0.565
 127   0.1693  -0.0361    0.516
 128   0.1813  -0.0355    0.468
 129   0.1935  -0.0349    0.416
 130   0.2061  -0.0341    0.378
 131   0.2190  -0.0332    0.343
 132   0.2321  -0.0322    0.308
 133   0.2455  -0.0312    0.279
 134   0.2591  -0.0300    0.257
 135   0.2730  -0.0288    0.234
 136   0.2871  -0.0275    0.215
 137   0.3014  -0.0261    0.199
 138   0.3159  -0.0246    0.181
 139   0.3306  -0.0231    0.174
 140   0.3455  -0.0215    0.154
 141   0.3605  -0.0199    0.149
 142   0.3757  -0.0182    0.138
 143   0.3909  -0.0164    0.124
 144   0.4063  -0.0146    0.117
 145   0.4218  -0.0128    0.102
 146   0.4373  -0.0109    0.095
 147   0.4529  -0.0090    0.081
 148   0.4686  -0.0070    0.065
 149   0.4843  -0.0051    0.054
 150   0.5000  -0.0031    0.029
 151   0.5157  -0.0011    0.014
 152   0.5314   0.0009   -0.007
 153   0.5471   0.0029   -0.030
 154   0.5627   0.0048   -0.062
 155   0.5782   0.0068   -0.082
 156   0.5937   0.0087   -0.119
 157   0.6091   0.0106   -0.151
 158   0.6243   0.0124   -0.185
 159   0.6395   0.0141   -0.222
 160   0.6545   0.0158   -0.263
 161   0.6694   0.0174   -0.301
 162   0.6841   0.0189   -0.350
 163   0.6986   0.0203   -0.390
 164   0.7129   0.0215   -0.433
 165   0.7270   0.0227   -0.484
 166   0.7409   0.0237   -0.526
 167   0.7545   0.0245   -0.576
 168   0.7679   0.0253   -0.614
 169   0.7810   0.0258   -0.664
 170   0.7939   0.0262   -0.702
 171   0.8065   0.0264   -0.740
 172   0.8187   0.0265   -0.788
 173   0.8307   0.0264   -0.812
 174   0.8423   0.0262   -0.845
 175   0.8536   0.0257   -0.878
 176   0.8645   0.0252   -0.890
 177   0.8751   0.0244   -0.917
 178   0.8853   0.0236   -0.925
 179   0.8951   0.0226   -0.932
 180   0.9045   0.0215   -0.928
 181   0.9135   0.0203   -0.934
 182   0.9222   0.0190   -0.916
 183   0.9304   0.0176   -0.905
 184   0.9382   0.0162   -0.879
 185   0.9455   0.0148   -0.852
 186   0.9524   0.0133   -0.819
 187   0.9589   0.0118   -0.781
 188   0.9649   0.0103   -0.745
 189   0.9704   0.0089   -0.688
 190   0.9755   0.0075   -0.630
 191   0.9801   0.0062   -0.608
 192   0.9843   0.0050   -0.524
 193   0.9880   0.0039   -0.470
 194   0.9911   0.0029   -0.401
 195   0.9938   0.0020   -0.348
 196   0.9961   0.0013   -0.263
 197   0.9978   0.0007   -0.219
 198   0.9990   0.0003   -0.163
 199   0.9998   0.0001   -0.045

 Maximum panel corner angle = 10.400   at  i,x,y  = 101   0.0002  -0.0026

 Enter corner angle criterion for refinement (deg):   5.200
 Enter type of spline parameter (1=uniform, 2=arclength):   1
 Enter refinement x limits:  -0.10000   1.10000
 Number of points added:           18
 Max thickness =     0.156143  at x =   0.219
 Max camber    =     0.049630  at x =   0.376

 Maximum panel corner angle =  4.844   at  i,x,y  =  96   0.0039   0.0203

.GDES   c>  
 Buffer airfoil is not identical to current airfoil

 XFOIL   c>  
 Blunt trailing edge.  Gap =  0.00027

 Paneling parameters used...
   Number of panel nodes       160
   Panel bunching parameter    1.000
   TE/LE panel density ratio   0.150
   Refined-area/LE panel density ratio    0.200
   Top    side refined area x/c limits  1.000 1.000
   Bottom side refined area x/c limits  1.000 1.000

 XFOIL   c>  
Enter output filename   s>  
 XFOIL   c>  
.OPERi   c>   Current iteration limit:          20

Enter new iteration limit   i>  
Enter new iteration limit   i>  
Enter new iteration limit   i>  
.OPERi   c>  
 M  =    0.0000
 Re =  0.3000E+06

.OPERv   c>  
 Sonic Cp =   -420.65      Sonic Q/Qinf =    22.825


.OPERv   c>  
 Polar  1 newly created for accumulation
 Airfoil archived with polar: 000178                                          

Enter  polar save filename  OR  <return> for no file   s>  
 New polar save file available

Enter  polar dump filename  OR  <return> for no file   s>  
 Polar dump file will NOT be written

 Polar accumulation enabled

.OPERva   c>   Calculating unit vorticity distributions ...
 Calculating wake trajectory ...
 Calculating source influence matrix ...

 Solving BL system ...

 Initializing BL ...
    side            1  ...
 MRCHUE: Inverse mode at  48     Hk =   4.341
 MRCHUE: Inverse mode at  49     Hk =   5.229
 MRCHUE: Inverse mode at  50     Hk =   6.107
 MRCHUE: Inverse mode at  51     Hk =   6.983
 MRCHUE: Inverse mode at  52     Hk =   7.862
 MRCHUE: Inverse mode at  53     Hk =   8.746
 MRCHUE: Inverse mode at  54     Hk =   8.544
 MRCHUE: Inverse mode at  55     Hk =   4.655
 MRCHUE: Inverse mode at  56     Hk =   2.717
    side            2  ...
 MRCHUE: Inverse mode at  45     Hk =   4.237
 MRCHUE: Inverse mode at  46     Hk =   4.904
 MRCHUE: Inverse mode at  47     Hk =   5.552
 MRCHUE: Inverse mode at  48     Hk =   6.184
 MRCHUE: Inverse mode at  49     Hk =   6.801
 MRCHUE: Inverse mode at  50     Hk =   7.401
 MRCHUE: Inverse mode at  51     Hk =   7.987
 MRCHUE: Inverse mode at  52     Hk =   8.556
 MRCHUE: Inverse mode at  53     Hk =   6.690
 MRCHUE: Inverse mode at  54     Hk =   4.823
 MRCHUE: Inverse mode at  55     Hk =   3.569
 MRCHUE: Inverse mode at  77     Hk =   1.569

 Side 1  free  transition at x/c =  0.3708   54
 Side 2  free  transition at x/c =  0.6236   53

   1   rms: 0.1491E+00   max: -.6205E+00   D at   56  1   RLX: 0.806
       a =  2.000      CL =  1.0966
      Cm = -0.1819     CD =  0.01669   =>   CDf =  0.00825    CDp =  0.00844

 MRCHDU: Convergence failed at  54  side 1    Res =  0.7204E+01
 MRCHDU: Convergence failed at  55  side 1    Res =  0.5856E+01
 MRCHDU: Convergence failed at  56  side 1    Res =  0.5753E+01
 MRCHDU: Convergence failed at  57  side 1    Res =  0.1917E+02
 MRCHDU: Convergence failed at  58  side 1    Res =  0.1045E+03
 MRCHDU: Convergence failed at  59  side 1    Res =  0.2929E+04
 MRCHDU: Convergence failed at  60  side 1    Res =  0.4414E+03
 MRCHDU: Convergence failed at  61  side 1    Res =  0.1147E+03
 MRCHDU: Convergence failed at  62  side 1    Res =  0.6012E+02
 MRCHDU: Convergence failed at  63  side 1    Res =  0.4125E+02
 MRCHDU: Convergence failed at  64  side 1    Res =  0.3245E+02
 MRCHDU: Convergence failed at  65  side 1    Res =  0.2783E+02
 MRCHDU: Convergence failed at  66  side 1    Res =  0.2471E+02
 MRCHDU: Convergence failed at  67  side 1    Res =  0.2299E+02
 MRCHDU: Convergence failed at  68  side 1    Res =  0.2183E+02
 MRCHDU: Convergence failed at  69  side 1    Res =  0.2110E+02
 MRCHDU: Convergence failed at  70  side 1    Res =  0.2047E+02
 MRCHDU: Convergence failed at  71  side 1    Res =  0.1995E+02
 MRCHDU: Convergence failed at  72  side 1    Res =  0.1926E+02
 MRCHDU: Convergence failed at  73  side 1    Res =  0.1874E+02
 MRCHDU: Convergence failed at  74  side 1    Res =  0.1812E+02
 MRCHDU: Convergence failed at  75  side 1    Res =  0.1729E+02
 MRCHDU: Convergence failed at  76  side 1    Res =  0.1646E+02
 MRCHDU: Convergence failed at  77  side 1    Res =  0.1550E+02
 MRCHDU: Convergence failed at  78  side 1    Res =  0.1440E+02
 MRCHDU: Convergence failed at  79  side 1    Res =  0.1328E+02
 MRCHDU: Convergence failed at  80  side 1    Res =  0.9403E+01
 MRCHDU: Convergence failed at  81  side 1    Res =  0.1100E+02
 MRCHDU: Convergence failed at  82  side 1    Res =  0.1656E+02
 MRCHDU: Convergence failed at  83  side 1    Res =  0.1513E+02
 MRCHDU: Convergence failed at  84  side 1    Res =  0.3505E+02
 MRCHDU: Convergence failed at  85  side 1    Res =  0.1524E+05
 MRCHDU: Convergence failed at  86  side 1    Res =  0.5386E+02
 Side 1  free  transition at x/c =  0.3849   54
 Side 2  free  transition at x/c =  0.6381   54

   2   rms: 0.6607E+00   max: 0.2992E+01   D at   78  2   RLX: 0.501
       a =  2.000      CL =  1.2883
      Cm = -0.2948     CD =  0.00856   =>   CDf =  0.00437    CDp =  0.00419

 Side 1  free  transition at x/c =  0.3768   54
 Side 2  free  transition at x/c =  0.6325   54

   3   rms: 0.1844E+00   max: -.8535E+00   D at   78  1   RLX: 0.586
       a =  2.000      CL =  1.1165
      Cm = -0.2067     CD =  0.01650   =>   CDf =  0.00837    CDp =  0.00813

 Side 1  free  transition at x/c =  0.3821   54
 Side 2  free  transition at x/c =  0.6339   54

   4   rms: 0.8303E-01   max: 0.4036E+00   D at   78  2
       a =  2.000      CL =  1.0728
      Cm = -0.1772     CD =  0.01511   =>   CDf =  0.00827    CDp =  0.00684

 Side 1  free  transition at x/c =  0.3841   54
 Side 2  free  transition at x/c =  0.6370   54

   5   rms: 0.8981E-02   max: -.8470E-01   D at   78  2
       a =  2.000      CL =  1.0646
      Cm = -0.1756     CD =  0.01542   =>   CDf =  0.00776    CDp =  0.00766

 Side 1  free  transition at x/c =  0.3840   54
 Side 2  free  transition at x/c =  0.6362   54

   6   rms: 0.3512E-03   max: -.5511E-02   D at   78  2
       a =  2.000      CL =  1.0644
      Cm = -0.1756     CD =  0.01542   =>   CDf =  0.00775    CDp =  0.00766

 Side 1  free  transition at x/c =  0.3840   54
 Side 2  free  transition at x/c =  0.6362   54

   7   rms: 0.1431E-05   max: -.2156E-04   D at   78  2
       a =  2.000      CL =  1.0644
      Cm = -0.1756     CD =  0.01542   =>   CDf =  0.00775    CDp =  0.00767

 Point added to stored polar  1
 Point written to save file  000178M0.04.log                                 
 Dump file unspecified or not available
 Calculating wake trajectory ...
 Calculating source influence matrix ...

 Solving BL system ...

 Side 1  free  transition at x/c =  0.3840   54
 Side 2  free  transition at x/c =  0.6362   54

   1   rms: 0.1607E+00   max: -.8612E+00   T at   54  2   RLX: 0.581
       a =  3.000      CL =  1.1340
      Cm = -0.1759     CD =  0.01584   =>   CDf =  0.00764    CDp =  0.00820

 MRCHDU: Convergence failed at  55  side 2    Res =  0.3227E+01
 MRCHDU: Convergence failed at  56  side 2    Res =  0.4760E+01
 MRCHDU: Convergence failed at  57  side 2    Res =  0.3515E+01
 MRCHDU: Convergence failed at  58  side 2    Res =  0.6589E+01
 MRCHDU: Convergence failed at  59  side 2    Res =  0.1187E+02
 MRCHDU: Convergence failed at  60  side 2    Res =  0.1999E+02
 MRCHDU: Convergence failed at  61  side 2    Res =  0.3031E+02
 MRCHDU: Convergence failed at  62  side 2    Res =  0.4378E+02
 MRCHDU: Convergence failed at  63  side 2    Res =  0.5315E+02
 MRCHDU: Convergence failed at  64  side 2    Res =  0.5983E+02
 MRCHDU: Convergence failed at  65  side 2    Res =  0.6516E+02
 MRCHDU: Convergence failed at  66  side 2    Res =  0.7250E+02
 MRCHDU: Convergence failed at  67  side 2    Res =  0.8426E+02
 MRCHDU: Convergence failed at  68  side 2    Res =  0.1053E+03
 MRCHDU: Convergence failed at  69  side 2    Res =  0.1429E+03
 MRCHDU: Convergence failed at  70  side 2    Res =  0.1450E+03
 MRCHDU: Convergence failed at  71  side 2    Res =  0.7008E+02
 MRCHDU: Convergence failed at  72  side 2    Res =  0.2285E+02
 MRCHDU: Convergence failed at  73  side 2    Res =  0.6903E+01
 Side 1  free  transition at x/c =  0.3748   55
 Side 2  free  transition at x/c =  0.6736   55

   2   rms: 0.2042E+00   max: 0.9865E+00   T at   64  2   RLX: 0.666
       a =  3.000      CL =  1.1671
      Cm = -0.1703     CD =  0.01612   =>   CDf =  0.00714    CDp =  0.00898

 Side 1  free  transition at x/c =  0.3711   54
 Side 2  free  transition at x/c =  0.6785   55

   3   rms: 0.4540E-01   max: -.4812E+00   D at   57  2
       a =  3.000      CL =  1.1798
      Cm = -0.1752     CD =  0.01634   =>   CDf =  0.00796    CDp =  0.00838

 Side 1  free  transition at x/c =  0.3692   54
 Side 2  free  transition at x/c =  0.6861   56

   4   rms: 0.1237E-01   max: 0.1735E+00   D at   56  2
       a =  3.000      CL =  1.1791
      Cm = -0.1750     CD =  0.01627   =>   CDf =  0.00773    CDp =  0.00855

 Side 1  free  transition at x/c =  0.3692   54
 Side 2  free  transition at x/c =  0.6836   56

   5   rms: 0.8886E-03   max: 0.1097E-01   D at   56  2
       a =  3.000      CL =  1.1790
      Cm = -0.1750     CD =  0.01628   =>   CDf =  0.00773    CDp =  0.00855

 Side 1  free  transition at x/c =  0.3692   54
 Side 2  free  transition at x/c =  0.6833   56

   6   rms: 0.9077E-05   max: -.1250E-03   D at   58  2
       a =  3.000      CL =  1.1790
      Cm = -0.1750     CD =  0.01628   =>   CDf =  0.00773    CDp =  0.00855

 Point added to stored polar  1
 Point written to save file  000178M0.04.log                                 
 Dump file unspecified or not available
 Calculating wake trajectory ...
 Calculating source influence matrix ...

 Solving BL system ...

 Side 1  free  transition at x/c =  0.3692   54
 Side 2  free  transition at x/c =  0.6833   56

   1   rms: 0.1558E+00   max: -.8379E+00   T at   56  2   RLX: 0.597
       a =  4.000      CL =  1.2446
      Cm = -0.1740     CD =  0.01660   =>   CDf =  0.00761    CDp =  0.00899

 Side 1  free  transition at x/c =  0.3592   55
 Side 2  free  transition at x/c =  0.7011   56

   2   rms: 0.1187E+00   max: -.1058E+01   T at   56  2   RLX: 0.472
       a =  4.000      CL =  1.2689
      Cm = -0.1750     CD =  0.01705   =>   CDf =  0.00778    CDp =  0.00927

 Side 1  free  transition at x/c =  0.3573   55
 Side 2  free  transition at x/c =  0.7120   56

   3   rms: 0.6540E-01   max: -.4489E+00   D at   56  2
       a =  4.000      CL =  1.2948
      Cm = -0.1750     CD =  0.01726   =>   CDf =  0.00758    CDp =  0.00968

 Side 1  free  transition at x/c =  0.3547   55
 Side 2  free  transition at x/c =  0.7333   56

   4   rms: 0.2923E-01   max: 0.3359E+00   C at   56  2
       a =  4.000      CL =  1.2930
      Cm = -0.1746     CD =  0.01720   =>   CDf =  0.00771    CDp =  0.00948

 Side 1  free  transition at x/c =  0.3544   55
 Side 2  free  transition at x/c =  0.7282   56

   5   rms: 0.7178E-02   max: -.8633E-01   D at   59  2
       a =  4.000      CL =  1.2916
      Cm = -0.1742     CD =  0.01723   =>   CDf =  0.00773    CDp =  0.00950

 Side 1  free  transition at x/c =  0.3544   55
 Side 2  free  transition at x/c =  0.7252   56

   6   rms: 0.7859E-03   max: -.9946E-02   D at   59  2
       a =  4.000      CL =  1.2916
      Cm = -0.1742     CD =  0.01723   =>   CDf =  0.00775    CDp =  0.00948

 Side 1  free  transition at x/c =  0.3544   55
 Side 2  free  transition at x/c =  0.7252   56

   7   rms: 0.2885E-05   max: -.5646E-04   D at   59  2
       a =  4.000      CL =  1.2916
      Cm = -0.1742     CD =  0.01723   =>   CDf =  0.00775    CDp =  0.00948

 Point added to stored polar  1
 Point written to save file  000178M0.04.log                                 
 Dump file unspecified or not available
 Calculating wake trajectory ...
 Calculating source influence matrix ...

 Solving BL system ...

 Side 1  free  transition at x/c =  0.3544   55
 Side 2  free  transition at x/c =  0.7252   56

   1   rms: 0.1529E+00   max: -.7775E+00   T at   56  2   RLX: 0.643
       a =  5.000      CL =  1.3613
      Cm = -0.1730     CD =  0.01749   =>   CDf =  0.00760    CDp =  0.00989

 Side 1  free  transition at x/c =  0.3445   56
 Side 2  free  transition at x/c =  0.7433   56

   2   rms: 0.9019E-01   max: -.7266E+00   T at   56  2   RLX: 0.688
       a =  5.000      CL =  1.3913
      Cm = -0.1737     CD =  0.01787   =>   CDf =  0.00764    CDp =  0.01024

 Side 1  free  transition at x/c =  0.3415   56
 Side 2  free  transition at x/c =  0.7562   56

   3   rms: 0.5257E-01   max: -.4575E+00   D at   57  2
       a =  5.000      CL =  1.4066
      Cm = -0.1742     CD =  0.01812   =>   CDf =  0.00760    CDp =  0.01052

 MRCHDU: Convergence failed at  58  side 2    Res =  0.2627E+01
 MRCHDU: Convergence failed at  59  side 2    Res =  0.3155E+01
 MRCHDU: Convergence failed at  60  side 2    Res =  0.1838E+01
 MRCHDU: Convergence failed at  61  side 2    Res =  0.2390E+01
 MRCHDU: Convergence failed at  62  side 2    Res =  0.3044E+01
 MRCHDU: Convergence failed at  63  side 2    Res =  0.3668E+01
 MRCHDU: Convergence failed at  64  side 2    Res =  0.4125E+01
 MRCHDU: Convergence failed at  65  side 2    Res =  0.4258E+01
 MRCHDU: Convergence failed at  66  side 2    Res =  0.4000E+01
 MRCHDU: Convergence failed at  67  side 2    Res =  0.3355E+01
 MRCHDU: Convergence failed at  68  side 2    Res =  0.2445E+01
 Side 1  free  transition at x/c =  0.3401   56
 Side 2  free  transition at x/c =  0.7734   57

   4   rms: 0.1002E+00   max: 0.7001E+00   T at   61  2   RLX: 0.949
       a =  5.000      CL =  1.3996
      Cm = -0.1724     CD =  0.01743   =>   CDf =  0.00724    CDp =  0.01019

 Side 1  free  transition at x/c =  0.3404   56
 Side 2  free  transition at x/c =  0.7703   57

   5   rms: 0.1493E-01   max: 0.1117E+00   T at   58  2
       a =  5.000      CL =  1.4032
      Cm = -0.1733     CD =  0.01795   =>   CDf =  0.00757    CDp =  0.01039

 Side 1  free  transition at x/c =  0.3402   56
 Side 2  free  transition at x/c =  0.7644   57

   6   rms: 0.1842E-02   max: -.2603E-01   D at   60  2
       a =  5.000      CL =  1.4030
      Cm = -0.1733     CD =  0.01796   =>   CDf =  0.00759    CDp =  0.01038

 Side 1  free  transition at x/c =  0.3403   56
 Side 2  free  transition at x/c =  0.7643   57

   7   rms: 0.1952E-04   max: -.4111E-03   D at   60  2
       a =  5.000      CL =  1.4030
      Cm = -0.1733     CD =  0.01796   =>   CDf =  0.00759    CDp =  0.01037

 Point added to stored polar  1
 Point written to save file  000178M0.04.log                                 
 Dump file unspecified or not available
 Calculating wake trajectory ...
 Calculating source influence matrix ...

 Solving BL system ...

 Side 1  free  transition at x/c =  0.3403   56
 Side 2  free  transition at x/c =  0.7643   57

   1   rms: 0.1525E+00   max: -.7166E+00   T at   57  2   RLX: 0.698
       a =  6.000      CL =  1.4786
      Cm = -0.1723     CD =  0.01878   =>   CDf =  0.00742    CDp =  0.01136

 Side 1  free  transition at x/c =  0.3322   56
 Side 2  free  transition at x/c =  0.7873   57

   2   rms: 0.5163E-01   max: -.3092E+00   T at   57  2
       a =  6.000      CL =  1.5128
      Cm = -0.1724     CD =  0.01891   =>   CDf =  0.00750    CDp =  0.01141

 Side 1  free  transition at x/c =  0.3253   56
 Side 2  free  transition at x/c =  0.8043   58

   3   rms: 0.8015E-02   max: 0.9822E-01   D at   59  2
       a =  6.000      CL =  1.5124
      Cm = -0.1723     CD =  0.01894   =>   CDf =  0.00743    CDp =  0.01150

 Side 1  free  transition at x/c =  0.3260   56
 Side 2  free  transition at x/c =  0.8030   58

   4   rms: 0.4966E-03   max: 0.7795E-02   D at   59  2
       a =  6.000      CL =  1.5124
      Cm = -0.1722     CD =  0.01894   =>   CDf =  0.00741    CDp =  0.01153

 Side 1  free  transition at x/c =  0.3260   56
 Side 2  free  transition at x/c =  0.8029   58

   5   rms: 0.1056E-05   max: -.1097E-04   D at   58  2
       a =  6.000      CL =  1.5124
      Cm = -0.1722     CD =  0.01894   =>   CDf =  0.00741    CDp =  0.01152

 Point added to stored polar  1
 Point written to save file  000178M0.04.log                                 
 Dump file unspecified or not available
 Calculating wake trajectory ...
 Calculating source influence matrix ...

 Solving BL system ...

 Side 1  free  transition at x/c =  0.3260   56
 Side 2  free  transition at x/c =  0.8029   58

   1   rms: 0.1494E+00   max: -.6759E+00   T at   58  2   RLX: 0.740
       a =  7.000      CL =  1.5922
      Cm = -0.1713     CD =  0.01953   =>   CDf =  0.00704    CDp =  0.01249

 Side 1  free  transition at x/c =  0.3169   57
 Side 2  free  transition at x/c =  0.8301   58

   2   rms: 0.5887E-01   max: 0.5501E+00   D at    2  1
       a =  7.000      CL =  1.6188
      Cm = -0.1709     CD =  0.01985   =>   CDf =  0.00741    CDp =  0.01244

 Side 1  free  transition at x/c =  0.3117   57
 Side 2  free  transition at x/c =  0.8427   58

   3   rms: 0.2060E-01   max: -.2314E+00   D at   59  2
       a =  7.000      CL =  1.6204
      Cm = -0.1712     CD =  0.02005   =>   CDf =  0.00725    CDp =  0.01279

 Side 1  free  transition at x/c =  0.3118   57
 Side 2  free  transition at x/c =  0.8455   58

   4   rms: 0.2707E-02   max: 0.5218E-01   D at   59  2
       a =  7.000      CL =  1.6197
      Cm = -0.1711     CD =  0.02003   =>   CDf =  0.00725    CDp =  0.01278

 Side 1  free  transition at x/c =  0.3118   57
 Side 2  free  transition at x/c =  0.8445   58

   5   rms: 0.2134E-04   max: 0.2397E-03   D at   59  2
       a =  7.000      CL =  1.6197
      Cm = -0.1711     CD =  0.02003   =>   CDf =  0.00725    CDp =  0.01278

 Point added to stored polar  1
 Point written to save file  000178M0.04.log                                 
 Dump file unspecified or not available
 Calculating wake trajectory ...
 Calculating source influence matrix ...

 Solving BL system ...

 Side 1  free  transition at x/c =  0.3118   57
 Side 2  free  transition at x/c =  0.8445   58

   1   rms: 0.1497E+00   max: -.6524E+00   T at   58  2   RLX: 0.766
       a =  8.000      CL =  1.7038
      Cm = -0.1707     CD =  0.02078   =>   CDf =  0.00703    CDp =  0.01375

 MRCHDU: Convergence failed at  60  side 2    Res =  0.1792E+02
 MRCHDU: Convergence failed at  61  side 2    Res =  0.2853E+01
 MRCHDU: Convergence failed at  62  side 2    Res =  0.2669E+01
 Side 1  free  transition at x/c =  0.3008   57
 Side 2  free  transition at x/c =  0.8854   60

   2   rms: 0.5426E-01   max: 0.4926E+00   C at   62  2
       a =  8.000      CL =  1.7202
      Cm = -0.1687     CD =  0.02114   =>   CDf =  0.00717    CDp =  0.01397

 Side 1  free  transition at x/c =  0.2981   57
 Side 2  free  transition at x/c =  0.8963   61

   3   rms: 0.1179E-01   max: -.1764E+00   C at   61  2
       a =  8.000      CL =  1.7208
      Cm = -0.1688     CD =  0.02110   =>   CDf =  0.00707    CDp =  0.01404

 Side 1  free  transition at x/c =  0.2979   57
 Side 2  free  transition at x/c =  0.8988   61

   4   rms: 0.9761E-03   max: -.2044E-01   D at   63  2
       a =  8.000      CL =  1.7205
      Cm = -0.1688     CD =  0.02111   =>   CDf =  0.00705    CDp =  0.01405

 Side 1  free  transition at x/c =  0.2979   57
 Side 2  free  transition at x/c =  0.8985   61

   5   rms: 0.1262E-04   max: -.2842E-03   D at   63  2
       a =  8.000      CL =  1.7205
      Cm = -0.1688     CD =  0.02110   =>   CDf =  0.00705    CDp =  0.01405

 Point added to stored polar  1
 Point written to save file  000178M0.04.log                                 
 Dump file unspecified or not available
 Calculating wake trajectory ...
 Calculating source influence matrix ...

 Solving BL system ...

 Side 1  free  transition at x/c =  0.2979   57
 Side 2  free  transition at x/c =  0.8985   61

   1   rms: 0.1661E+00   max: -.1715E+01   C at   61  2   RLX: 0.292
       a =  9.000      CL =  1.7456
      Cm = -0.1673     CD =  0.02129   =>   CDf =  0.00681    CDp =  0.01448

 Side 1  free  transition at x/c =  0.2935   58
 Side 2  free  transition at x/c =  0.9205   61

   2   rms: 0.1756E+00   max: -.2640E+01   C at   61  2   RLX: 0.189
       a =  9.000      CL =  1.7569
      Cm = -0.1668     CD =  0.02148   =>   CDf =  0.00696    CDp =  0.01452

 Side 1  free  transition at x/c =  0.2916   58
 Side 2  free  transition at x/c =  0.9367   62

   3   rms: 0.9460E+00   max: -.1522E+02   C at   62  2   RLX: 0.033
       a =  9.000      CL =  1.7567
      Cm = -0.1664     CD =  0.02149   =>   CDf =  0.00692    CDp =  0.01457

 Side 1  free  transition at x/c =  0.2914   58
 Side 2  free  transition at x/c =  0.9365   62

   4   rms: 0.9668E-01   max: -.5700E+00   T at   62  2   RLX: 0.877
       a =  9.000      CL =  1.8133
      Cm = -0.1668     CD =  0.02195   =>   CDf =  0.00667    CDp =  0.01528

 Side 1  free  transition at x/c =  0.2847   58
 Side 2 forced transition at x/c =  1.0001   66

   5   rms: 0.2899E-01   max: 0.4911E+00   D at   61  2
       a =  9.000      CL =  1.8188
      Cm = -0.1665     CD =  0.02237   =>   CDf =  0.00701    CDp =  0.01536

 Side 1  free  transition at x/c =  0.2834   58
 Side 2 forced transition at x/c =  1.0001   66

   6   rms: 0.3583E-02   max: -.6448E-01   D at   61  2
       a =  9.000      CL =  1.8189
      Cm = -0.1665     CD =  0.02238   =>   CDf =  0.00693    CDp =  0.01544

 Side 1  free  transition at x/c =  0.2834   58
 Side 2 forced transition at x/c =  1.0001   66

   7   rms: 0.9497E-04   max: -.1687E-02   D at   61  2
       a =  9.000      CL =  1.8189
      Cm = -0.1665     CD =  0.02238   =>   CDf =  0.00693    CDp =  0.01545

 Point added to stored polar  1
 Point written to save file  000178M0.04.log                                 
 Dump file unspecified or not available
 Calculating wake trajectory ...
 Calculating source influence matrix ...

 Solving BL system ...

 Side 1  free  transition at x/c =  0.2834   58
 Side 2 forced transition at x/c =  1.0001   66

   1   rms: 0.1491E+00   max: 0.4876E+00   T at   58  1
       a = 10.000      CL =  1.9218
      Cm = -0.1655     CD =  0.02383   =>   CDf =  0.00666    CDp =  0.01717

 Side 1  free  transition at x/c =  0.2664   58
 Side 2 forced transition at x/c =  1.0001   65

   2   rms: 0.3315E-01   max: -.2709E+00   D at   59  1
       a = 10.000      CL =  1.9177
      Cm = -0.1648     CD =  0.02412   =>   CDf =  0.00691    CDp =  0.01721

 Side 1  free  transition at x/c =  0.2683   58
 Side 2 forced transition at x/c =  1.0001   65

   3   rms: 0.2576E-02   max: 0.1387E-01   D at   54  2
       a = 10.000      CL =  1.9189
      Cm = -0.1650     CD =  0.02411   =>   CDf =  0.00684    CDp =  0.01727

 Side 1  free  transition at x/c =  0.2680   58
 Side 2 forced transition at x/c =  1.0001   65

   4   rms: 0.4468E-04   max: 0.3209E-03   D at   54  2
       a = 10.000      CL =  1.9189
      Cm = -0.1650     CD =  0.02411   =>   CDf =  0.00683    CDp =  0.01728

 Point added to stored polar  1
 Point written to save file  000178M0.04.log                                 
 Dump file unspecified or not available
 Calculating wake trajectory ...
 Calculating source influence matrix ...

 Solving BL system ...

 Side 1  free  transition at x/c =  0.2680   58
 Side 2 forced transition at x/c =  1.0001   65

   1   rms: 0.1395E+00   max: -.5353E+00   C at   58  1   RLX: 0.934
       a = 11.000      CL =  2.0024
      Cm = -0.1617     CD =  0.02557   =>   CDf =  0.00653    CDp =  0.01904

 Side 1  free  transition at x/c =  0.2514   58
 Side 2 forced transition at x/c =  1.0001   64

   2   rms: 0.2783E-01   max: -.2631E+00   D at   59  1
       a = 11.000      CL =  2.0044
      Cm = -0.1609     CD =  0.02610   =>   CDf =  0.00640    CDp =  0.01971

 Side 1  free  transition at x/c =  0.2525   59
 Side 2 forced transition at x/c =  1.0001   63

   3   rms: 0.2192E-02   max: 0.1414E-01   T at   59  1
       a = 11.000      CL =  2.0069
      Cm = -0.1614     CD =  0.02607   =>   CDf =  0.00664    CDp =  0.01944

 Side 1  free  transition at x/c =  0.2521   59
 Side 2 forced transition at x/c =  1.0001   63

   4   rms: 0.1808E-03   max: -.2244E-02   D at    4  1
       a = 11.000      CL =  2.0069
      Cm = -0.1614     CD =  0.02607   =>   CDf =  0.00663    CDp =  0.01944

 Side 1  free  transition at x/c =  0.2521   59
 Side 2 forced transition at x/c =  1.0001   63

   5   rms: 0.1084E-05   max: -.1058E-04   D at    4  1
       a = 11.000      CL =  2.0069
      Cm = -0.1614     CD =  0.02607   =>   CDf =  0.00663    CDp =  0.01944

 Point added to stored polar  1
 Point written to save file  000178M0.04.log                                 
 Dump file unspecified or not available
 Calculating wake trajectory ...
 Calculating source influence matrix ...

 Solving BL system ...

 Side 1  free  transition at x/c =  0.2521   59
 Side 2 forced transition at x/c =  1.0001   63

   1   rms: 0.1333E+00   max: -.5220E+00   C at   59  1   RLX: 0.958
       a = 12.000      CL =  2.0809
      Cm = -0.1563     CD =  0.02797   =>   CDf =  0.00630    CDp =  0.02167

 Side 1  free  transition at x/c =  0.2348   59
 Side 2 forced transition at x/c =  1.0001   62

   2   rms: 0.2263E-01   max: -.1882E+00   D at   59  1
       a = 12.000      CL =  2.0756
      Cm = -0.1548     CD =  0.02854   =>   CDf =  0.00648    CDp =  0.02207

 Side 1  free  transition at x/c =  0.2364   59
 Side 2 forced transition at x/c =  1.0001   62

   3   rms: 0.3279E-02   max: 0.1470E-01   T at   59  1
       a = 12.000      CL =  2.0787
      Cm = -0.1553     CD =  0.02853   =>   CDf =  0.00636    CDp =  0.02217

 Side 1  free  transition at x/c =  0.2359   59
 Side 2 forced transition at x/c =  1.0001   62

   4   rms: 0.8065E-04   max: 0.7703E-03   D at   68  2
       a = 12.000      CL =  2.0786
      Cm = -0.1553     CD =  0.02853   =>   CDf =  0.00636    CDp =  0.02218

 Point added to stored polar  1
 Point written to save file  000178M0.04.log                                 
 Dump file unspecified or not available
 Calculating wake trajectory ...
 Calculating source influence matrix ...

 Solving BL system ...

 Side 1  free  transition at x/c =  0.2359   59
 Side 2 forced transition at x/c =  1.0001   62

   1   rms: 0.1235E+00   max: 0.4533E+00   T at   59  1
       a = 13.000      CL =  2.1312
      Cm = -0.1462     CD =  0.03132   =>   CDf =  0.00600    CDp =  0.02532

 Side 1  free  transition at x/c =  0.2179   59
 Side 2 forced transition at x/c =  1.0001   61

   2   rms: 0.2495E-01   max: -.2377E+00   D at   59  1
       a = 13.000      CL =  2.1158
      Cm = -0.1444     CD =  0.03206   =>   CDf =  0.00615    CDp =  0.02591

 Side 1  free  transition at x/c =  0.2208   59
 Side 2 forced transition at x/c =  1.0001   61

   3   rms: 0.4813E-02   max: -.2231E-01   D at  101  1
       a = 13.000      CL =  2.1202
      Cm = -0.1451     CD =  0.03200   =>   CDf =  0.00603    CDp =  0.02597

 Side 1  free  transition at x/c =  0.2201   59
 Side 2 forced transition at x/c =  1.0001   61

   4   rms: 0.7334E-04   max: -.5245E-03   D at   59  1
       a = 13.000      CL =  2.1202
      Cm = -0.1451     CD =  0.03201   =>   CDf =  0.00603    CDp =  0.02598

 Point added to stored polar  1
 Point written to save file  000178M0.04.log                                 
 Dump file unspecified or not available
 Calculating wake trajectory ...
 Calculating source influence matrix ...

 Solving BL system ...

 Side 1  free  transition at x/c =  0.2201   59
 Side 2 forced transition at x/c =  1.0001   61

   1   rms: 0.1202E+00   max: 0.4254E+00   T at   59  1
       a = 14.000      CL =  2.1553
      Cm = -0.1352     CD =  0.03622   =>   CDf =  0.00564    CDp =  0.03058

 Side 1  free  transition at x/c =  0.2025   59
 Side 2 forced transition at x/c =  1.0001   60

   2   rms: 0.2570E-01   max: -.2513E+00   D at   59  1
       a = 14.000      CL =  2.1385
      Cm = -0.1346     CD =  0.03763   =>   CDf =  0.00581    CDp =  0.03182

 Side 1  free  transition at x/c =  0.2050   59
 Side 2 forced transition at x/c =  1.0001   60

   3   rms: 0.5225E-02   max: -.2948E-01   D at   98  1
       a = 14.000      CL =  2.1431
      Cm = -0.1351     CD =  0.03747   =>   CDf =  0.00564    CDp =  0.03183

 Side 1  free  transition at x/c =  0.2041   59
 Side 2 forced transition at x/c =  1.0001   60

   4   rms: 0.9314E-04   max: -.1069E-02   D at   59  1
       a = 14.000      CL =  2.1431
      Cm = -0.1351     CD =  0.03748   =>   CDf =  0.00565    CDp =  0.03183

 Point added to stored polar  1
 Point written to save file  000178M0.04.log                                 
 Dump file unspecified or not available
 Calculating wake trajectory ...
 Calculating source influence matrix ...

 Solving BL system ...

 Side 1  free  transition at x/c =  0.2041   59
 Side 2 forced transition at x/c =  1.0001   60

   1   rms: 0.1242E+00   max: 0.4073E+00   D at   92  1   RLX: 0.877
       a = 15.000      CL =  2.1566
      Cm = -0.1277     CD =  0.04368   =>   CDf =  0.00567    CDp =  0.03800

 Side 1  free  transition at x/c =  0.1871   58
 Side 2 forced transition at x/c =  1.0001   60

   2   rms: 0.4047E-01   max: -.3016E+00   D at   58  1
       a = 15.000      CL =  2.1325
      Cm = -0.1277     CD =  0.04777   =>   CDf =  0.00549    CDp =  0.04228

 Side 1  free  transition at x/c =  0.1882   58
 Side 2 forced transition at x/c =  1.0001   60

   3   rms: 0.5795E-02   max: -.4297E-01   D at   94  1
       a = 15.000      CL =  2.1360
      Cm = -0.1284     CD =  0.04764   =>   CDf =  0.00521    CDp =  0.04243

 Side 1  free  transition at x/c =  0.1871   58
 Side 2 forced transition at x/c =  1.0001   60

   4   rms: 0.1632E-03   max: -.1602E-02   D at   58  1
       a = 15.000      CL =  2.1361
      Cm = -0.1284     CD =  0.04763   =>   CDf =  0.00523    CDp =  0.04240

 Side 1  free  transition at x/c =  0.1871   58
 Side 2 forced transition at x/c =  1.0001   60

   5   rms: 0.1845E-04   max: 0.1126E-03   C at   60  2
       a = 15.000      CL =  2.1361
      Cm = -0.1284     CD =  0.04763   =>   CDf =  0.00523    CDp =  0.04240

 Point added to stored polar  1
 Point written to save file  000178M0.04.log                                 
 Dump file unspecified or not available

.OPERva   c>  
 XFOIL   c>  
0.1
resp: 
 ===================================================
  XFOIL Version 6.97
  Copyright (C) 2000   Mark Drela, Harold Youngren

  This software comes with ABSOLUTELY NO WARRANTY,
    subject to the GNU General Public License.

  Caveat computor
 ===================================================

 File  xfoil.def  not found

   QUIT    Exit program

  .OPER    Direct operating point(s)
  .MDES    Complex mapping design routine
  .QDES    Surface speed design routine
  .GDES    Geometry design routine

   SAVE f  Write airfoil to labeled coordinate file
   PSAV f  Write airfoil to plain coordinate file
   ISAV f  Write airfoil to ISES coordinate file
   MSAV f  Write airfoil to MSES coordinate file
   REVE    Reverse written-airfoil node ordering
   DELI i  Change written-airfoil file delimiters

   LOAD f  Read buffer airfoil from coordinate file
   NACA i  Set NACA 4,5-digit airfoil and buffer airfoil
   INTE    Set buffer airfoil by interpolating two airfoils
   NORM    Buffer airfoil normalization toggle
   HALF    Halve the number of points in buffer airfoil
   XYCM rr Change CM reference location, currently  0.25000 0.00000

   BEND    Display structural properties of current airfoil

   PCOP    Set current-airfoil panel nodes directly from buffer airfoil points
   PANE    Set current-airfoil panel nodes ( 160 ) based on curvature
  .PPAR    Show/change paneling

  .PLOP    Plotting options

   WDEF f  Write  current-settings file
   RDEF f  Reread current-settings file
   NAME s  Specify new airfoil name
   NINC    Increment name version number

   Z       Zoom    | (available in all menus)
   U       Unzoom  | 

 XFOIL   c>   ...............................................

  G raphics-enable flag:        T
  S ize of plot object          10.00"
  A spect ratio of plot object   0.5500
  P age dimensions              11.00 x  8.50"
  M argins from page edges       0.00",  0.00"
  F ont size (relative)          0.0150
  W indow/screen size fraction   0.8000
  B lowup input method:        Cursor    
  O rientation of plot:        Landscape 
  C olor PostScript output?     F

      Option, Value   (or <Return>)    c>   ...............................................

  G raphics-enable flag:        F
  S ize of plot object          10.00"
  A spect ratio of plot object   0.5500
  P age dimensions              11.00 x  8.50"
  M argins from page edges       0.00",  0.00"
  F ont size (relative)          0.0150
  W indow/screen size fraction   0.8000
  B lowup input method:        Cursor    
  O rientation of plot:        Landscape 
  C olor PostScript output?     F

      Option, Value   (or <Return>)    c>  
 XFOIL   c>  
 Labeled airfoil file.  Name:  000178                                          

 Number of input coordinate points: 200
 Clockwise ordering
 Max thickness =     0.156152  at x =   0.219
 Max camber    =     0.049140  at x =   0.376

  LE  x,y  =  -0.00001   0.00076  |   Chord =   0.99989
  TE  x,y  =   0.99988   0.00005  |

 Current airfoil nodes set from buffer airfoil nodes ( 200 )

 XFOIL   c>  
 You are working with the buffer airfoil

.GDES   c>  
  i       x        y      angle
   2   0.9990   0.0004    0.056
   3   0.9978   0.0010    0.219
   4   0.9961   0.0017    0.225
   5   0.9938   0.0027    0.327
   6   0.9911   0.0038    0.360
   7   0.9880   0.0051    0.394
   8   0.9843   0.0066    0.490
   9   0.9801   0.0082    0.500
  10   0.9755   0.0100    0.558
  11   0.9704   0.0119    0.587
  12   0.9649   0.0139    0.629
  13   0.9589   0.0160    0.653
  14   0.9524   0.0182    0.681
  15   0.9455   0.0205    0.682
  16   0.9382   0.0228    0.704
  17   0.9304   0.0251    0.705
  18   0.9222   0.0274    0.701
  19   0.9135   0.0297    0.692
  20   0.9045   0.0321    0.673
  21   0.8951   0.0344    0.657
  22   0.8853   0.0367    0.624
  23   0.8751   0.0390    0.598
  24   0.8645   0.0412    0.552
  25   0.8536   0.0434    0.519
  26   0.8423   0.0456    0.477
  27   0.8307   0.0477    0.417
  28   0.8187   0.0498    0.382
  29   0.8065   0.0518    0.320
  30   0.7939   0.0539    0.280
  31   0.7810   0.0559    0.221
  32   0.7679   0.0580    0.174
  33   0.7545   0.0600    0.128
  34   0.7409   0.0620    0.086
  35   0.7270   0.0641    0.035
  36   0.7129   0.0661    0.008
  37   0.6986   0.0682   -0.032
  38   0.6841   0.0704   -0.063
  39   0.6694   0.0725   -0.080
  40   0.6545   0.0748   -0.099
  41   0.6395   0.0770   -0.111
  42   0.6243   0.0793   -0.115
  43   0.6091   0.0817   -0.117
  44   0.5937   0.0841   -0.102
  45   0.5782   0.0866   -0.093
  46   0.5627   0.0891   -0.067
  47   0.5471   0.0916   -0.045
  48   0.5314   0.0942   -0.007
  49   0.5157   0.0968    0.030
  50   0.5000   0.0993    0.075
  51   0.4843   0.1018    0.130
  52   0.4686   0.1043    0.179
  53   0.4529   0.1068    0.243
  54   0.4373   0.1091    0.308
  55   0.4218   0.1114    0.373
  56   0.4063   0.1136    0.447
  57   0.3909   0.1156    0.516
  58   0.3757   0.1174    0.597
  59   0.3605   0.1191    0.674
  60   0.3455   0.1206    0.745
  61   0.3306   0.1219    0.831
  62   0.3159   0.1230    0.908
  63   0.3014   0.1238    0.982
  64   0.2871   0.1243    1.058
  65   0.2730   0.1246    1.129
  66   0.2591   0.1246    1.209
  67   0.2455   0.1244    1.266
  68   0.2321   0.1238    1.337
  69   0.2190   0.1229    1.393
  70   0.2061   0.1218    1.450
  71   0.1935   0.1203    1.499
  72   0.1813   0.1185    1.544
  73   0.1693   0.1165    1.595
  74   0.1577   0.1142    1.629
  75   0.1464   0.1116    1.665
  76   0.1355   0.1088    1.703
  77   0.1249   0.1057    1.745
  78   0.1147   0.1024    1.768
  79   0.1049   0.0989    1.821
  80   0.0955   0.0951    1.848
  81   0.0865   0.0912    1.906
  82   0.0778   0.0871    1.960
  83   0.0696   0.0829    2.033
  84   0.0618   0.0785    2.104
  85   0.0545   0.0740    2.199
  86   0.0476   0.0694    2.331
  87   0.0411   0.0647    2.455
  88   0.0351   0.0600    2.623
  89   0.0296   0.0551    2.806
  90   0.0245   0.0503    3.031
  91   0.0199   0.0453    3.283
  92   0.0157   0.0404    3.569
  93   0.0120   0.0354    3.858
  94   0.0089   0.0303    4.205
  95   0.0062   0.0253    4.530
  96   0.0039   0.0203    4.844
  97   0.0022   0.0152    5.150
  98   0.0010   0.0101    5.368
  99   0.0002   0.0051    5.520
 100   0.0000   0.0000    8.140
 101   0.0002  -0.0026   10.400
 102   0.0010  -0.0053    9.664
 103   0.0022  -0.0079    8.659
 104   0.0039  -0.0104    7.546
 105   0.0062  -0.0129    6.524
 106   0.0089  -0.0153    5.621
 107   0.0120  -0.0176    4.834
 108   0.0157  -0.0199    4.206
 109   0.0199  -0.0220    3.649
 110   0.0245  -0.0240    3.200
 111   0.0296  -0.0259    2.825
 112   0.0351  -0.0277    2.511
 113   0.0411  -0.0293    2.232
 114   0.0476  -0.0307    1.999
 115   0.0545  -0.0321    1.790
 116   0.0618  -0.0332    1.611
 117   0.0696  -0.0342    1.454
 118   0.0778  -0.0351    1.300
 119   0.0865  -0.0358    1.180
 120   0.0955  -0.0363    1.066
 121   0.1049  -0.0367    0.957
 122   0.1147  -0.0370    0.867
 123   0.1249  -0.0371    0.784
 124   0.1355  -0.0370    0.700
 125   0.1464  -0.0368    0.642
 126   0.1577  -0.0365    0.565
 127   0.1693  -0.0361    0.516
 128   0.1813  -0.0355    0.468
 129   0.1935  -0.0349    0.416
 130   0.2061  -0.0341    0.378
 131   0.2190  -0.0332    0.343
 132   0.2321  -0.0322    0.308
 133   0.2455  -0.0312    0.279
 134   0.2591  -0.0300    0.257
 135   0.2730  -0.0288    0.234
 136   0.2871  -0.0275    0.215
 137   0.3014  -0.0261    0.199
 138   0.3159  -0.0246    0.181
 139   0.3306  -0.0231    0.174
 140   0.3455  -0.0215    0.154
 141   0.3605  -0.0199    0.149
 142   0.3757  -0.0182    0.138
 143   0.3909  -0.0164    0.124
 144   0.4063  -0.0146    0.117
 145   0.4218  -0.0128    0.102
 146   0.4373  -0.0109    0.095
 147   0.4529  -0.0090    0.081
 148   0.4686  -0.0070    0.065
 149   0.4843  -0.0051    0.054
 150   0.5000  -0.0031    0.029
 151   0.5157  -0.0011    0.014
 152   0.5314   0.0009   -0.007
 153   0.5471   0.0029   -0.030
 154   0.5627   0.0048   -0.062
 155   0.5782   0.0068   -0.082
 156   0.5937   0.0087   -0.119
 157   0.6091   0.0106   -0.151
 158   0.6243   0.0124   -0.185
 159   0.6395   0.0141   -0.222
 160   0.6545   0.0158   -0.263
 161   0.6694   0.0174   -0.301
 162   0.6841   0.0189   -0.350
 163   0.6986   0.0203   -0.390
 164   0.7129   0.0215   -0.433
 165   0.7270   0.0227   -0.484
 166   0.7409   0.0237   -0.526
 167   0.7545   0.0245   -0.576
 168   0.7679   0.0253   -0.614
 169   0.7810   0.0258   -0.664
 170   0.7939   0.0262   -0.702
 171   0.8065   0.0264   -0.740
 172   0.8187   0.0265   -0.788
 173   0.8307   0.0264   -0.812
 174   0.8423   0.0262   -0.845
 175   0.8536   0.0257   -0.878
 176   0.8645   0.0252   -0.890
 177   0.8751   0.0244   -0.917
 178   0.8853   0.0236   -0.925
 179   0.8951   0.0226   -0.932
 180   0.9045   0.0215   -0.928
 181   0.9135   0.0203   -0.934
 182   0.9222   0.0190   -0.916
 183   0.9304   0.0176   -0.905
 184   0.9382   0.0162   -0.879
 185   0.9455   0.0148   -0.852
 186   0.9524   0.0133   -0.819
 187   0.9589   0.0118   -0.781
 188   0.9649   0.0103   -0.745
 189   0.9704   0.0089   -0.688
 190   0.9755   0.0075   -0.630
 191   0.9801   0.0062   -0.608
 192   0.9843   0.0050   -0.524
 193   0.9880   0.0039   -0.470
 194   0.9911   0.0029   -0.401
 195   0.9938   0.0020   -0.348
 196   0.9961   0.0013   -0.263
 197   0.9978   0.0007   -0.219
 198   0.9990   0.0003   -0.163
 199   0.9998   0.0001   -0.045

 Maximum panel corner angle = 10.400   at  i,x,y  = 101   0.0002  -0.0026

 Enter corner angle criterion for refinement (deg):   5.200
 Enter type of spline parameter (1=uniform, 2=arclength):   1
 Enter refinement x limits:  -0.10000   1.10000
 Number of points added:           18
 Max thickness =     0.156143  at x =   0.219
 Max camber    =     0.049630  at x =   0.376

 Maximum panel corner angle =  4.844   at  i,x,y  =  96   0.0039   0.0203

.GDES   c>  
 Buffer airfoil is not identical to current airfoil

 XFOIL   c>  
 Blunt trailing edge.  Gap =  0.00027

 Paneling parameters used...
   Number of panel nodes       160
   Panel bunching parameter    1.000
   TE/LE panel density ratio   0.150
   Refined-area/LE panel density ratio    0.200
   Top    side refined area x/c limits  1.000 1.000
   Bottom side refined area x/c limits  1.000 1.000

 XFOIL   c>  
.OPERi   c>   Current iteration limit:          20

Enter new iteration limit   i>  
Enter new iteration limit   i>  
Enter new iteration limit   i>  
.OPERi   c>  
 M  =    0.0000
 Re =  0.3000E+06

.OPERv   c>  
 Sonic Cp =    -66.86      Sonic Q/Qinf =     9.138


.OPERv   c>  
 Polar  1 newly created for accumulation
 Airfoil archived with polar: 000178                                          

Enter  polar save filename  OR  <return> for no file   s>  
 New polar save file available

Enter  polar dump filename  OR  <return> for no file   s>  
 Polar dump file will NOT be written

 Polar accumulation enabled

.OPERva   c>   Calculating unit vorticity distributions ...
 Calculating wake trajectory ...
 Calculating source influence matrix ...

 Solving BL system ...

 Initializing BL ...
    side            1  ...
 MRCHUE: Inverse mode at  48     Hk =   4.390
 MRCHUE: Inverse mode at  49     Hk =   5.277
 MRCHUE: Inverse mode at  50     Hk =   6.156
 MRCHUE: Inverse mode at  51     Hk =   7.032
 MRCHUE: Inverse mode at  52     Hk =   7.911
 MRCHUE: Inverse mode at  53     Hk =   8.796
 MRCHUE: Inverse mode at  54     Hk =   8.275
 MRCHUE: Inverse mode at  55     Hk =   4.535
 MRCHUE: Inverse mode at  56     Hk =   2.594
    side            2  ...
 MRCHUE: Inverse mode at  45     Hk =   4.261
 MRCHUE: Inverse mode at  46     Hk =   4.928
 MRCHUE: Inverse mode at  47     Hk =   5.576
 MRCHUE: Inverse mode at  48     Hk =   6.209
 MRCHUE: Inverse mode at  49     Hk =   6.825
 MRCHUE: Inverse mode at  50     Hk =   7.427
 MRCHUE: Inverse mode at  51     Hk =   8.012
 MRCHUE: Inverse mode at  52     Hk =   8.582
 MRCHUE: Inverse mode at  53     Hk =   6.535
 MRCHUE: Inverse mode at  54     Hk =   4.729
 MRCHUE: Inverse mode at  55     Hk =   3.507
 MRCHUE: Inverse mode at  77     Hk =   1.585

 Side 1  free  transition at x/c =  0.3698   54
 Side 2  free  transition at x/c =  0.6223   53

   1   rms: 0.1504E+00   max: -.5978E+00   D at   55  2   RLX: 0.836
       a =  2.000      CL =  1.0989
      Cm = -0.1818     CD =  0.01646   =>   CDf =  0.00822    CDp =  0.00824

 MRCHDU: Convergence failed at  54  side 1    Res =  0.3058E+01
 MRCHDU: Convergence failed at  55  side 1    Res =  0.4248E+01
 MRCHDU: Convergence failed at  56  side 1    Res =  0.5610E+01
 MRCHDU: Convergence failed at  57  side 1    Res =  0.1832E+02
 MRCHDU: Convergence failed at  58  side 1    Res =  0.7689E+02
 MRCHDU: Convergence failed at  59  side 1    Res =  0.2978E+03
 MRCHDU: Convergence failed at  60  side 1    Res =  0.1895E+03
 MRCHDU: Convergence failed at  61  side 1    Res =  0.8385E+02
 MRCHDU: Convergence failed at  62  side 1    Res =  0.5155E+02
 MRCHDU: Convergence failed at  63  side 1    Res =  0.3711E+02
 MRCHDU: Convergence failed at  64  side 1    Res =  0.3015E+02
 MRCHDU: Convergence failed at  65  side 1    Res =  0.2599E+02
 MRCHDU: Convergence failed at  66  side 1    Res =  0.2357E+02
 MRCHDU: Convergence failed at  67  side 1    Res =  0.2206E+02
 MRCHDU: Convergence failed at  68  side 1    Res =  0.2105E+02
 MRCHDU: Convergence failed at  69  side 1    Res =  0.2041E+02
 MRCHDU: Convergence failed at  70  side 1    Res =  0.1971E+02
 MRCHDU: Convergence failed at  71  side 1    Res =  0.1927E+02
 MRCHDU: Convergence failed at  72  side 1    Res =  0.1870E+02
 MRCHDU: Convergence failed at  73  side 1    Res =  0.1825E+02
 MRCHDU: Convergence failed at  74  side 1    Res =  0.1771E+02
 MRCHDU: Convergence failed at  75  side 1    Res =  0.1704E+02
 MRCHDU: Convergence failed at  76  side 1    Res =  0.1624E+02
 MRCHDU: Convergence failed at  77  side 1    Res =  0.1531E+02
 MRCHDU: Convergence failed at  78  side 1    Res =  0.1421E+02
 MRCHDU: Convergence failed at  79  side 1    Res =  0.1313E+02
 MRCHDU: Convergence failed at  80  side 1    Res =  0.9775E+01
 MRCHDU: Convergence failed at  81  side 1    Res =  0.1150E+02
 MRCHDU: Convergence failed at  82  side 1    Res =  0.1455E+02
 MRCHDU: Convergence failed at  83  side 1    Res =  0.1401E+02
 MRCHDU: Convergence failed at  84  side 1    Res =  0.2990E+02
 MRCHDU: Convergence failed at  85  side 1    Res =  0.4307E+03
 MRCHDU: Convergence failed at  86  side 1    Res =  0.1177E+03
 Side 1  free  transition at x/c =  0.3832   54
 Side 2  free  transition at x/c =  0.6376   54

   2   rms: 0.6724E+00   max: 0.3061E+01   D at   78  2   RLX: 0.490
       a =  2.000      CL =  1.3008
      Cm = -0.2993     CD =  0.00856   =>   CDf =  0.00437    CDp =  0.00419

 Side 1  free  transition at x/c =  0.3752   54
 Side 2  free  transition at x/c =  0.6314   54

   3   rms: 0.1914E+00   max: -.8973E+00   D at   77  1   RLX: 0.557
       a =  2.000      CL =  1.1311
      Cm = -0.2102     CD =  0.01692   =>   CDf =  0.00831    CDp =  0.00861

 Side 1  free  transition at x/c =  0.3801   54
 Side 2  free  transition at x/c =  0.6333   54

   4   rms: 0.8520E-01   max: 0.3991E+00   D at   78  2
       a =  2.000      CL =  1.0784
      Cm = -0.1777     CD =  0.01520   =>   CDf =  0.00831    CDp =  0.00689

 Side 1  free  transition at x/c =  0.3829   54
 Side 2  free  transition at x/c =  0.6358   54

   5   rms: 0.9139E-02   max: -.8629E-01   D at   78  2
       a =  2.000      CL =  1.0700
      Cm = -0.1761     CD =  0.01550   =>   CDf =  0.00775    CDp =  0.00775

 Side 1  free  transition at x/c =  0.3828   54
 Side 2  free  transition at x/c =  0.6348   54

   6   rms: 0.3797E-03   max: -.5888E-02   D at   78  2
       a =  2.000      CL =  1.0697
      Cm = -0.1761     CD =  0.01550   =>   CDf =  0.00774    CDp =  0.00775

 Side 1  free  transition at x/c =  0.3828   54
 Side 2  free  transition at x/c =  0.6347   54

   7   rms: 0.1589E-05   max: -.2278E-04   D at   78  2
       a =  2.000      CL =  1.0697
      Cm = -0.1761     CD =  0.01550   =>   CDf =  0.00774    CDp =  0.00776

 Point added to stored polar  1
 Point written to save file  000178M0.1.log                                  
 Dump file unspecified or not available
 Calculating wake trajectory ...
 Calculating source influence matrix ...

 Solving BL system ...

 Side 1  free  transition at x/c =  0.3828   54
 Side 2  free  transition at x/c =  0.6347   54

   1   rms: 0.1585E+00   max: -.8196E+00   T at   54  2   RLX: 0.610
       a =  3.000      CL =  1.1426
      Cm = -0.1763     CD =  0.01594   =>   CDf =  0.00763    CDp =  0.00831

 MRCHDU: Convergence failed at  55  side 2    Res =  0.6806E+01
 MRCHDU: Convergence failed at  56  side 2    Res =  0.6671E+01
 MRCHDU: Convergence failed at  57  side 2    Res =  0.3505E+01
 MRCHDU: Convergence failed at  58  side 2    Res =  0.5084E+01
 MRCHDU: Convergence failed at  59  side 2    Res =  0.8432E+01
 MRCHDU: Convergence failed at  60  side 2    Res =  0.1306E+02
 MRCHDU: Convergence failed at  61  side 2    Res =  0.1862E+02
 MRCHDU: Convergence failed at  62  side 2    Res =  0.2423E+02
 MRCHDU: Convergence failed at  63  side 2    Res =  0.2925E+02
 MRCHDU: Convergence failed at  64  side 2    Res =  0.3359E+02
 MRCHDU: Convergence failed at  65  side 2    Res =  0.3758E+02
 MRCHDU: Convergence failed at  66  side 2    Res =  0.4227E+02
 MRCHDU: Convergence failed at  67  side 2    Res =  0.5175E+02
 MRCHDU: Convergence failed at  68  side 2    Res =  0.6264E+02
 MRCHDU: Convergence failed at  69  side 2    Res =  0.7709E+02
 MRCHDU: Convergence failed at  70  side 2    Res =  0.8664E+02
 MRCHDU: Convergence failed at  71  side 2    Res =  0.5603E+02
 MRCHDU: Convergence failed at  72  side 2    Res =  0.2177E+02
 MRCHDU: Convergence failed at  73  side 2    Res =  0.6876E+01
 Side 1  free  transition at x/c =  0.3737   55
 Side 2  free  transition at x/c =  0.6714   55

   2   rms: 0.2045E+00   max: 0.9969E+00   T at   64  2   RLX: 0.670
       a =  3.000      CL =  1.1744
      Cm = -0.1709     CD =  0.01649   =>   CDf =  0.00715    CDp =  0.00933

 Side 1  free  transition at x/c =  0.3688   54
 Side 2  free  transition at x/c =  0.6765   55

   3   rms: 0.4726E-01   max: -.4836E+00   D at   57  2
       a =  3.000      CL =  1.1856
      Cm = -0.1756     CD =  0.01644   =>   CDf =  0.00793    CDp =  0.00851

 Side 1  free  transition at x/c =  0.3681   54
 Side 2  free  transition at x/c =  0.6840   56

   4   rms: 0.8142E-02   max: 0.1083E+00   D at   56  2
       a =  3.000      CL =  1.1852
      Cm = -0.1755     CD =  0.01638   =>   CDf =  0.00772    CDp =  0.00865

 Side 1  free  transition at x/c =  0.3680   54
 Side 2  free  transition at x/c =  0.6826   56

   5   rms: 0.4583E-03   max: 0.6348E-02   D at   56  2
       a =  3.000      CL =  1.1852
      Cm = -0.1755     CD =  0.01638   =>   CDf =  0.00772    CDp =  0.00866

 Side 1  free  transition at x/c =  0.3680   54
 Side 2  free  transition at x/c =  0.6825   56

   6   rms: 0.2187E-05   max: -.3432E-04   D at   58  2
       a =  3.000      CL =  1.1852
      Cm = -0.1755     CD =  0.01638   =>   CDf =  0.00772    CDp =  0.00866

 Point added to stored polar  1
 Point written to save file  000178M0.1.log                                  
 Dump file unspecified or not available
 Calculating wake trajectory ...
 Calculating source influence matrix ...

 Solving BL system ...

 Side 1  free  transition at x/c =  0.3680   54
 Side 2  free  transition at x/c =  0.6825   56

   1   rms: 0.1562E+00   max: -.8452E+00   T at   56  2   RLX: 0.592
       a =  4.000      CL =  1.2505
      Cm = -0.1745     CD =  0.01670   =>   CDf =  0.00759    CDp =  0.00911

 Side 1  free  transition at x/c =  0.3582   55
 Side 2  free  transition at x/c =  0.7002   55

   2   rms: 0.9299E-01   max: -.9439E+00   T at   55  2   RLX: 0.530
       a =  4.000      CL =  1.2795
      Cm = -0.1756     CD =  0.01781   =>   CDf =  0.00763    CDp =  0.01018

 MRCHDU: Convergence failed at  56  side 2    Res =  0.2695E+02
 MRCHDU: Convergence failed at  57  side 2    Res =  0.5065E+01
 MRCHDU: Convergence failed at  58  side 2    Res =  0.3973E+01
 MRCHDU: Convergence failed at  59  side 2    Res =  0.5855E+01
 MRCHDU: Convergence failed at  60  side 2    Res =  0.8030E+01
 MRCHDU: Convergence failed at  61  side 2    Res =  0.1013E+02
 MRCHDU: Convergence failed at  62  side 2    Res =  0.1200E+02
 MRCHDU: Convergence failed at  63  side 2    Res =  0.1337E+02
 MRCHDU: Convergence failed at  64  side 2    Res =  0.1399E+02
 MRCHDU: Convergence failed at  65  side 2    Res =  0.1388E+02
 MRCHDU: Convergence failed at  66  side 2    Res =  0.1364E+02
 MRCHDU: Convergence failed at  67  side 2    Res =  0.1069E+02
 MRCHDU: Convergence failed at  68  side 2    Res =  0.7877E+01
 MRCHDU: Convergence failed at  69  side 2    Res =  0.5177E+01
 MRCHDU: Convergence failed at  70  side 2    Res =  0.3117E+01
 Side 1  free  transition at x/c =  0.3560   56
 Side 2  free  transition at x/c =  0.7219   56

   3   rms: 0.5459E+00   max: 0.9093E+01   T at    2  1   RLX: 0.128
       a =  4.000      CL =  1.2545
      Cm = -0.1580     CD =  0.01657   =>   CDf =  0.00723    CDp =  0.00934

 Side 1  free  transition at x/c =  0.3555   56
 Side 2  free  transition at x/c =  0.7218   56

   4   rms: 0.8832E-01   max: 0.7083E+00   D at   60  2   RLX: 0.779
       a =  4.000      CL =  1.2901
      Cm = -0.1718     CD =  0.01764   =>   CDf =  0.00808    CDp =  0.00956

 Side 1  free  transition at x/c =  0.3538   55
 Side 2  free  transition at x/c =  0.7245   56

   5   rms: 0.2164E-01   max: -.3005E+00   D at   58  2
       a =  4.000      CL =  1.2982
      Cm = -0.1746     CD =  0.01733   =>   CDf =  0.00778    CDp =  0.00955

 Side 1  free  transition at x/c =  0.3534   55
 Side 2  free  transition at x/c =  0.7249   56

   6   rms: 0.2735E-02   max: -.4274E-01   D at   58  2
       a =  4.000      CL =  1.2985
      Cm = -0.1746     CD =  0.01733   =>   CDf =  0.00771    CDp =  0.00963

 Side 1  free  transition at x/c =  0.3534   55
 Side 2  free  transition at x/c =  0.7244   56

   7   rms: 0.6363E-04   max: -.1546E-02   D at   58  2
       a =  4.000      CL =  1.2985
      Cm = -0.1746     CD =  0.01733   =>   CDf =  0.00771    CDp =  0.00962

 Point added to stored polar  1
 Point written to save file  000178M0.1.log                                  
 Dump file unspecified or not available
 Calculating wake trajectory ...
 Calculating source influence matrix ...

 Solving BL system ...

 Side 1  free  transition at x/c =  0.3534   55
 Side 2  free  transition at x/c =  0.7244   56

   1   rms: 0.1530E+00   max: -.7870E+00   T at   56  2   RLX: 0.635
       a =  5.000      CL =  1.3676
      Cm = -0.1734     CD =  0.01766   =>   CDf =  0.00756    CDp =  0.01010

 Side 1  free  transition at x/c =  0.3431   56
 Side 2  free  transition at x/c =  0.7418   56

   2   rms: 0.1007E+00   max: -.8238E+00   T at   56  2   RLX: 0.607
       a =  5.000      CL =  1.3953
      Cm = -0.1742     CD =  0.01807   =>   CDf =  0.00764    CDp =  0.01044

 Side 1  free  transition at x/c =  0.3406   56
 Side 2  free  transition at x/c =  0.7538   56

   3   rms: 0.5706E-01   max: -.4613E+00   D at   57  2
       a =  5.000      CL =  1.4140
      Cm = -0.1745     CD =  0.01827   =>   CDf =  0.00760    CDp =  0.01067

 MRCHDU: Convergence failed at  58  side 2    Res =  0.1796E+01
 MRCHDU: Convergence failed at  59  side 2    Res =  0.2971E+01
 MRCHDU: Convergence failed at  60  side 2    Res =  0.1686E+01
 MRCHDU: Convergence failed at  61  side 2    Res =  0.2325E+01
 MRCHDU: Convergence failed at  62  side 2    Res =  0.3104E+01
 MRCHDU: Convergence failed at  63  side 2    Res =  0.3954E+01
 MRCHDU: Convergence failed at  64  side 2    Res =  0.4668E+01
 MRCHDU: Convergence failed at  65  side 2    Res =  0.5258E+01
 MRCHDU: Convergence failed at  66  side 2    Res =  0.5037E+01
 MRCHDU: Convergence failed at  67  side 2    Res =  0.4177E+01
 MRCHDU: Convergence failed at  68  side 2    Res =  0.2637E+01
 Side 1  free  transition at x/c =  0.3390   56
 Side 2  free  transition at x/c =  0.7714   57

   4   rms: 0.9202E-01   max: 0.6627E+00   T at   61  2   RLX: 0.985
       a =  5.000      CL =  1.4047
      Cm = -0.1724     CD =  0.01758   =>   CDf =  0.00725    CDp =  0.01032

 Side 1  free  transition at x/c =  0.3393   56
 Side 2  free  transition at x/c =  0.7670   57

   5   rms: 0.1252E-01   max: -.1232E+00   D at   60  2
       a =  5.000      CL =  1.4108
      Cm = -0.1737     CD =  0.01815   =>   CDf =  0.00758    CDp =  0.01057

 Side 1  free  transition at x/c =  0.3390   56
 Side 2  free  transition at x/c =  0.7636   57

   6   rms: 0.1200E-02   max: -.2232E-01   D at   60  2
       a =  5.000      CL =  1.4107
      Cm = -0.1737     CD =  0.01816   =>   CDf =  0.00761    CDp =  0.01055

 Side 1  free  transition at x/c =  0.3390   56
 Side 2  free  transition at x/c =  0.7635   57

   7   rms: 0.1650E-04   max: -.3729E-03   D at   60  2
       a =  5.000      CL =  1.4107
      Cm = -0.1737     CD =  0.01816   =>   CDf =  0.00761    CDp =  0.01055

 Point added to stored polar  1
 Point written to save file  000178M0.1.log                                  
 Dump file unspecified or not available
 Calculating wake trajectory ...
 Calculating source influence matrix ...

 Solving BL system ...

 Side 1  free  transition at x/c =  0.3390   56
 Side 2  free  transition at x/c =  0.7635   57

   1   rms: 0.1546E+00   max: -.7340E+00   T at   57  2   RLX: 0.681
       a =  6.000      CL =  1.4850
      Cm = -0.1728     CD =  0.01923   =>   CDf =  0.00744    CDp =  0.01179

 MRCHDU: Convergence failed at  57  side 1    Res =  0.2021E+01
 MRCHDU: Convergence failed at  58  side 1    Res =  0.3182E+01
 MRCHDU: Convergence failed at  59  side 1    Res =  0.2690E+01
 MRCHDU: Convergence failed at  60  side 1    Res =  0.2105E+01
 MRCHDU: Convergence failed at  61  side 1    Res =  0.2921E+01
 MRCHDU: Convergence failed at  62  side 1    Res =  0.4150E+01
 MRCHDU: Convergence failed at  63  side 1    Res =  0.5529E+01
 MRCHDU: Convergence failed at  64  side 1    Res =  0.6507E+01
 MRCHDU: Convergence failed at  65  side 1    Res =  0.7459E+01
 MRCHDU: Convergence failed at  66  side 1    Res =  0.8078E+01
 MRCHDU: Convergence failed at  67  side 1    Res =  0.7654E+01
 MRCHDU: Convergence failed at  68  side 1    Res =  0.7023E+01
 MRCHDU: Convergence failed at  69  side 1    Res =  0.6446E+01
 MRCHDU: Convergence failed at  70  side 1    Res =  0.1049E+03
 MRCHDU: Convergence failed at  71  side 1    Res =  0.7471E+03
 MRCHDU: Convergence failed at  72  side 1    Res =  0.1027E+02
 MRCHDU: Convergence failed at  73  side 1    Res =  0.1066E+02
 MRCHDU: Convergence failed at  74  side 1    Res =  0.1073E+02
 MRCHDU: Convergence failed at  75  side 1    Res =  0.1565E+02
 MRCHDU: Convergence failed at  76  side 1    Res =  0.1638E+02
 MRCHDU: Convergence failed at  77  side 1    Res =  0.1709E+02
 MRCHDU: Convergence failed at  78  side 1    Res =  0.1778E+02
 MRCHDU: Convergence failed at  79  side 1    Res =  0.1850E+02
 MRCHDU: Convergence failed at  80  side 1    Res =  0.1928E+02
 MRCHDU: Convergence failed at  81  side 1    Res =  0.2264E+02
 MRCHDU: Convergence failed at  82  side 1    Res =  0.1960E+02
 MRCHDU: Convergence failed at  83  side 1    Res =  0.5603E+02
 MRCHDU: Convergence failed at  84  side 1    Res =  0.4358E+03
 MRCHDU: Convergence failed at  85  side 1    Res =  0.4215E+02
 MRCHDU: Convergence failed at  86  side 1    Res =  0.2101E+02
 MRCHDU: Convergence failed at  87  side 1    Res =  0.1629E+02
 MRCHDU: Convergence failed at  88  side 1    Res =  0.1534E+02
 MRCHDU: Convergence failed at  89  side 1    Res =  0.8971E+02
 MRCHDU: Convergence failed at  90  side 1    Res =  0.2756E+02
 MRCHDU: Convergence failed at  91  side 1    Res =  0.2789E+02
 Side 1  free  transition at x/c =  0.3307   56
 Side 2  free  transition at x/c =  0.7852   57

   2   rms: 0.9864E+00   max: 0.4472E+01   D at   73  2   RLX: 0.335
       a =  6.000      CL =  1.9768
      Cm = -0.4145     CD =  0.00838   =>   CDf =  0.00393    CDp =  0.00445

 MRCHDU: Convergence failed at  73  side 2    Res =  0.3071E+01
 MRCHDU: Convergence failed at  74  side 2    Res =  0.5164E+01
 MRCHDU: Convergence failed at  75  side 2    Res =  0.7506E+01
 MRCHDU: Convergence failed at  76  side 2    Res =  0.2003E+02
 MRCHDU: Convergence failed at  77  side 2    Res =  0.6144E+01
 MRCHDU: Convergence failed at  78  side 2    Res =  0.5031E+01
 MRCHDU: Convergence failed at  79  side 2    Res =  0.4150E+02
 MRCHDU: Convergence failed at  80  side 2    Res =  0.2186E+02
 MRCHDU: Convergence failed at  81  side 2    Res =  0.6083E+01
 MRCHDU: Convergence failed at  82  side 2    Res =  0.4457E+01
 MRCHDU: Convergence failed at  83  side 2    Res =  0.3615E+01
 MRCHDU: Convergence failed at  84  side 2    Res =  0.2580E+01
 MRCHDU: Convergence failed at  85  side 2    Res =  0.2335E+01
 MRCHDU: Convergence failed at  86  side 2    Res =  0.2476E+01
 MRCHDU: Convergence failed at  87  side 2    Res =  0.2539E+01
 MRCHDU: Convergence failed at  88  side 2    Res =  0.3651E+01
 MRCHDU: Convergence failed at  89  side 2    Res =  0.3891E+01
 Side 1  free  transition at x/c =  0.3132   55
 Side 2  free  transition at x/c =  0.7944   57

   3   rms: 0.3254E+00   max: -.5433E+00   D at   72  2   RLX: 0.455
       a =  6.000      CL =  1.5477
      Cm = -0.2295     CD =  0.03544   =>   CDf =  0.00483    CDp =  0.03061

 MRCHDU: Convergence failed at  74  side 1    Res =  0.5139E-01
 Side 1  free  transition at x/c =  0.3284   56
 Side 2  free  transition at x/c =  0.7950   58

   4   rms: 0.5476E+00   max: -.3896E+01   D at   74  1   RLX: 0.128
       a =  6.000      CL =  1.4735
      Cm = -0.1954     CD =  0.03465   =>   CDf =  0.00505    CDp =  0.02961

 MRCHDU: Convergence failed at  74  side 1    Res =  0.1801E+00
 MRCHDU: Convergence failed at  75  side 1    Res =  0.3711E+00
 MRCHDU: Convergence failed at  80  side 1    Res =  0.7694E+00
 Side 1  free  transition at x/c =  0.3331   56
 Side 2  free  transition at x/c =  0.7950   58

   5   rms: 0.2139E+02   max: -.1577E+03   D at   76  1   RLX: 0.003
       a =  6.000      CL =  1.3999
      Cm = -0.1577     CD =  0.03151   =>   CDf =  0.00545    CDp =  0.02605

 MRCHDU: Convergence failed at  76  side 1    Res =  0.9202E-01
 Side 1  free  transition at x/c =  0.3364   56
 Side 2  free  transition at x/c =  0.7945   57

   6   rms: 0.1784E+01   max: 0.1450E+02   D at   76  1   RLX: 0.103
       a =  6.000      CL =  1.4475
      Cm = -0.1756     CD =  0.03934   =>   CDf =  0.00587    CDp =  0.03347

 Side 1  free  transition at x/c =  0.3209   56
 Side 2  free  transition at x/c =  0.7977   58

   7   rms: 0.3467E+00   max: -.1703E+01   D at   65  1   RLX: 0.294
       a =  6.000      CL =  1.4034
      Cm = -0.1576     CD =  0.03445   =>   CDf =  0.00458    CDp =  0.02987

 Side 1  free  transition at x/c =  0.3261   56
 Side 2  free  transition at x/c =  0.7974   58

   8   rms: 0.5919E+00   max: -.3161E+01   D at   76  1   RLX: 0.158
       a =  6.000      CL =  1.3814
      Cm = -0.1451     CD =  0.03162   =>   CDf =  0.00491    CDp =  0.02671

 Side 1  free  transition at x/c =  0.3320   56
 Side 2  free  transition at x/c =  0.7970   58

   9   rms: 0.9745E+00   max: -.5339E+01   D at   76  1   RLX: 0.094
       a =  6.000      CL =  1.3649
      Cm = -0.1401     CD =  0.03056   =>   CDf =  0.00532    CDp =  0.02524

 Side 1  free  transition at x/c =  0.3391   57
 Side 2  free  transition at x/c =  0.7959   58

  10   rms: 0.3822E+00   max: -.2226E+01   D at   70  1   RLX: 0.225
       a =  6.000      CL =  1.3812
      Cm = -0.1421     CD =  0.02700   =>   CDf =  0.00596    CDp =  0.02103

 Side 1  free  transition at x/c =  0.3402   57
 Side 2  free  transition at x/c =  0.7964   58

  11   rms: 0.2950E+00   max: -.1543E+01   D at   72  1   RLX: 0.324
       a =  6.000      CL =  1.4248
      Cm = -0.1483     CD =  0.02444   =>   CDf =  0.00640    CDp =  0.01804

 Side 1  free  transition at x/c =  0.3379   57
 Side 2  free  transition at x/c =  0.7985   58

  12   rms: 0.4210E+00   max: -.1877E+01   D at   84  1   RLX: 0.266
       a =  6.000      CL =  1.5051
      Cm = -0.1607     CD =  0.02165   =>   CDf =  0.00671    CDp =  0.01494

 Side 1  free  transition at x/c =  0.3359   56
 Side 2  free  transition at x/c =  0.8019   58

  13   rms: 0.1779E+00   max: -.9265E+00   D at   74  1   RLX: 0.540
       a =  6.000      CL =  1.5304
      Cm = -0.1680     CD =  0.01840   =>   CDf =  0.00714    CDp =  0.01126

 Side 1  free  transition at x/c =  0.3298   56
 Side 2  free  transition at x/c =  0.8033   58

  14   rms: 0.9789E-01   max: -.6033E+00   D at   75  1   RLX: 0.829
       a =  6.000      CL =  1.5281
      Cm = -0.1720     CD =  0.01867   =>   CDf =  0.00721    CDp =  0.01146

 Side 1  free  transition at x/c =  0.3256   56
 Side 2  free  transition at x/c =  0.8028   58

  15   rms: 0.2821E-01   max: -.2078E+00   D at   75  1
       a =  6.000      CL =  1.5212
      Cm = -0.1726     CD =  0.01907   =>   CDf =  0.00737    CDp =  0.01170

 Side 1  free  transition at x/c =  0.3247   56
 Side 2  free  transition at x/c =  0.8021   58

  16   rms: 0.1622E-02   max: -.1576E-01   D at   85  1
       a =  6.000      CL =  1.5207
      Cm = -0.1725     CD =  0.01911   =>   CDf =  0.00741    CDp =  0.01170

 Side 1  free  transition at x/c =  0.3247   56
 Side 2  free  transition at x/c =  0.8020   58

  17   rms: 0.8399E-05   max: -.1156E-03   D at   85  1
       a =  6.000      CL =  1.5207
      Cm = -0.1725     CD =  0.01911   =>   CDf =  0.00741    CDp =  0.01170

 Point added to stored polar  1
 Point written to save file  000178M0.1.log                                  
 Dump file unspecified or not available
 Calculating wake trajectory ...
 Calculating source influence matrix ...

 Solving BL system ...

 Side 1  free  transition at x/c =  0.3247   56
 Side 2  free  transition at x/c =  0.8020   58

   1   rms: 0.1499E+00   max: -.6890E+00   T at   58  2   RLX: 0.726
       a =  7.000      CL =  1.5991
      Cm = -0.1714     CD =  0.01973   =>   CDf =  0.00703    CDp =  0.01270

 Side 1  free  transition at x/c =  0.3163   57
 Side 2  free  transition at x/c =  0.8283   57

   2   rms: 0.1539E+00   max: 0.2583E+01   D at    2  1   RLX: 0.446
       a =  7.000      CL =  1.6146
      Cm = -0.1719     CD =  0.02039   =>   CDf =  0.00736    CDp =  0.01302

 Side 1  free  transition at x/c =  0.3136   57
 Side 2  free  transition at x/c =  0.8361   58

   3   rms: 0.2476E-01   max: 0.1516E+00   D at   58  2
       a =  7.000      CL =  1.6277
      Cm = -0.1710     CD =  0.02020   =>   CDf =  0.00727    CDp =  0.01293

 Side 1  free  transition at x/c =  0.3102   57
 Side 2  free  transition at x/c =  0.8419   58

   4   rms: 0.5912E-02   max: -.7094E-01   D at   59  2
       a =  7.000      CL =  1.6286
      Cm = -0.1712     CD =  0.02023   =>   CDf =  0.00723    CDp =  0.01301

 Side 1  free  transition at x/c =  0.3104   57
 Side 2  free  transition at x/c =  0.8435   58

   5   rms: 0.2073E-03   max: 0.3630E-02   D at   59  2
       a =  7.000      CL =  1.6286
      Cm = -0.1712     CD =  0.02023   =>   CDf =  0.00722    CDp =  0.01301

 Side 1  free  transition at x/c =  0.3104   57
 Side 2  free  transition at x/c =  0.8434   58

   6   rms: 0.8034E-06   max: -.5433E-05   T at   58  2
       a =  7.000      CL =  1.6286
      Cm = -0.1712     CD =  0.02023   =>   CDf =  0.00722    CDp =  0.01301

 Point added to stored polar  1
 Point written to save file  000178M0.1.log                                  
 Dump file unspecified or not available
 Calculating wake trajectory ...
 Calculating source influence matrix ...

 Solving BL system ...

 Side 1  free  transition at x/c =  0.3104   57
 Side 2  free  transition at x/c =  0.8434   58

   1   rms: 0.1490E+00   max: -.6431E+00   T at   58  2   RLX: 0.777
       a =  8.000      CL =  1.7138
      Cm = -0.1706     CD =  0.02100   =>   CDf =  0.00700    CDp =  0.01400

 Side 1  free  transition at x/c =  0.3000   57
 Side 2  free  transition at x/c =  0.8836   60

   2   rms: 0.4080E-01   max: -.3939E+00   C at   60  2
       a =  8.000      CL =  1.7284
      Cm = -0.1684     CD =  0.02125   =>   CDf =  0.00719    CDp =  0.01406

 Side 1  free  transition at x/c =  0.2965   57
 Side 2  free  transition at x/c =  0.8935   60

   3   rms: 0.9952E-02   max: -.1691E+00   D at   61  2
       a =  8.000      CL =  1.7311
      Cm = -0.1690     CD =  0.02139   =>   CDf =  0.00701    CDp =  0.01438

 Side 1  free  transition at x/c =  0.2963   57
 Side 2  free  transition at x/c =  0.8964   61

   4   rms: 0.8647E-02   max: -.1293E+00   C at   61  2
       a =  8.000      CL =  1.7303
      Cm = -0.1689     CD =  0.02137   =>   CDf =  0.00702    CDp =  0.01435

 Side 1  free  transition at x/c =  0.2963   57
 Side 2  free  transition at x/c =  0.8972   61

   5   rms: 0.6921E-03   max: 0.1050E-01   C at   61  2
       a =  8.000      CL =  1.7301
      Cm = -0.1688     CD =  0.02136   =>   CDf =  0.00700    CDp =  0.01436

 Side 1  free  transition at x/c =  0.2964   57
 Side 2  free  transition at x/c =  0.8969   61

   6   rms: 0.3545E-05   max: -.6254E-04   D at   63  2
       a =  8.000      CL =  1.7301
      Cm = -0.1688     CD =  0.02136   =>   CDf =  0.00700    CDp =  0.01436

 Point added to stored polar  1
 Point written to save file  000178M0.1.log                                  
 Dump file unspecified or not available
 Calculating wake trajectory ...
 Calculating source influence matrix ...

 Solving BL system ...

 Side 1  free  transition at x/c =  0.2964   57
 Side 2  free  transition at x/c =  0.8969   61

   1   rms: 0.1652E+00   max: -.1669E+01   C at   61  2   RLX: 0.300
       a =  9.000      CL =  1.7559
      Cm = -0.1672     CD =  0.02156   =>   CDf =  0.00676    CDp =  0.01480

 Side 1  free  transition at x/c =  0.2918   58
 Side 2  free  transition at x/c =  0.9183   61

   2   rms: 0.1579E+00   max: -.2241E+01   C at   61  2   RLX: 0.223
       a =  9.000      CL =  1.7695
      Cm = -0.1667     CD =  0.02181   =>   CDf =  0.00694    CDp =  0.01487

 Side 1  free  transition at x/c =  0.2896   58
 Side 2  free  transition at x/c =  0.9373   62

   3   rms: 0.1001E+01   max: -.1591E+02   C at   62  2   RLX: 0.031
       a =  9.000      CL =  1.7692
      Cm = -0.1663     CD =  0.02184   =>   CDf =  0.00691    CDp =  0.01494

 Side 1  free  transition at x/c =  0.2895   58
 Side 2  free  transition at x/c =  0.9367   62

   4   rms: 0.9299E-01   max: -.5495E+00   T at   62  2   RLX: 0.910
       a =  9.000      CL =  1.8254
      Cm = -0.1667     CD =  0.02234   =>   CDf =  0.00665    CDp =  0.01568

 Side 1  free  transition at x/c =  0.2838   58
 Side 2 forced transition at x/c =  1.0001   66

   5   rms: 0.2822E-01   max: 0.4933E+00   D at   61  2
       a =  9.000      CL =  1.8280
      Cm = -0.1662     CD =  0.02266   =>   CDf =  0.00693    CDp =  0.01573

 Side 1  free  transition at x/c =  0.2819   58
 Side 2 forced transition at x/c =  1.0001   66

   6   rms: 0.3568E-02   max: -.6631E-01   D at   61  2
       a =  9.000      CL =  1.8281
      Cm = -0.1662     CD =  0.02267   =>   CDf =  0.00685    CDp =  0.01582

 Side 1  free  transition at x/c =  0.2819   58
 Side 2 forced transition at x/c =  1.0001   66

   7   rms: 0.9930E-04   max: -.1796E-02   D at   61  2
       a =  9.000      CL =  1.8281
      Cm = -0.1662     CD =  0.02267   =>   CDf =  0.00685    CDp =  0.01582

 Point added to stored polar  1
 Point written to save file  000178M0.1.log                                  
 Dump file unspecified or not available
 Calculating wake trajectory ...
 Calculating source influence matrix ...

 Solving BL system ...

 Side 1  free  transition at x/c =  0.2819   58
 Side 2 forced transition at x/c =  1.0001   66

   1   rms: 0.1488E+00   max: 0.4647E+00   T at   58  1
       a = 10.000      CL =  1.9322
      Cm = -0.1651     CD =  0.02427   =>   CDf =  0.00658    CDp =  0.01769

 Side 1  free  transition at x/c =  0.2650   58
 Side 2 forced transition at x/c =  1.0001   65

   2   rms: 0.3411E-01   max: -.2270E+00   D at   58  1
       a = 10.000      CL =  1.9270
      Cm = -0.1642     CD =  0.02443   =>   CDf =  0.00682    CDp =  0.01761

 Side 1  free  transition at x/c =  0.2669   58
 Side 2 forced transition at x/c =  1.0001   65

   3   rms: 0.2596E-02   max: 0.1438E-01   T at   58  1
       a = 10.000      CL =  1.9281
      Cm = -0.1644     CD =  0.02448   =>   CDf =  0.00673    CDp =  0.01775

 Side 1  free  transition at x/c =  0.2664   58
 Side 2 forced transition at x/c =  1.0001   65

   4   rms: 0.4853E-04   max: 0.3269E-03   D at   54  2
       a = 10.000      CL =  1.9280
      Cm = -0.1644     CD =  0.02448   =>   CDf =  0.00673    CDp =  0.01775

 Point added to stored polar  1
 Point written to save file  000178M0.1.log                                  
 Dump file unspecified or not available
 Calculating wake trajectory ...
 Calculating source influence matrix ...

 Solving BL system ...

 Side 1  free  transition at x/c =  0.2664   58
 Side 2 forced transition at x/c =  1.0001   65

   1   rms: 0.1387E+00   max: 0.4874E+00   T at   58  1
       a = 11.000      CL =  2.0186
      Cm = -0.1608     CD =  0.02625   =>   CDf =  0.00617    CDp =  0.02008

 Side 1  free  transition at x/c =  0.2488   59
 Side 2 forced transition at x/c =  1.0001   63

   2   rms: 0.3310E-01   max: -.2363E+00   D at   59  1
       a = 11.000      CL =  2.0128
      Cm = -0.1600     CD =  0.02651   =>   CDf =  0.00661    CDp =  0.01990

 Side 1  free  transition at x/c =  0.2509   59
 Side 2 forced transition at x/c =  1.0001   63

   3   rms: 0.2535E-02   max: -.1668E-01   D at    4  1
       a = 11.000      CL =  2.0151
      Cm = -0.1603     CD =  0.02655   =>   CDf =  0.00652    CDp =  0.02003

 Side 1  free  transition at x/c =  0.2503   59
 Side 2 forced transition at x/c =  1.0001   63

   4   rms: 0.4914E-04   max: 0.3151E-03   D at    4  1
       a = 11.000      CL =  2.0150
      Cm = -0.1603     CD =  0.02655   =>   CDf =  0.00652    CDp =  0.02003

 Point added to stored polar  1
 Point written to save file  000178M0.1.log                                  
 Dump file unspecified or not available
 Calculating wake trajectory ...
 Calculating source influence matrix ...

 Solving BL system ...

 Side 1  free  transition at x/c =  0.2504   59
 Side 2 forced transition at x/c =  1.0001   63

   1   rms: 0.1320E+00   max: 0.4775E+00   T at   59  1
       a = 12.000      CL =  2.0923
      Cm = -0.1548     CD =  0.02876   =>   CDf =  0.00619    CDp =  0.02258

 Side 1  free  transition at x/c =  0.2325   59
 Side 2 forced transition at x/c =  1.0001   62

   2   rms: 0.2818E-01   max: -.2522E+00   D at   59  1
       a = 12.000      CL =  2.0788
      Cm = -0.1527     CD =  0.02919   =>   CDf =  0.00635    CDp =  0.02284

 Side 1  free  transition at x/c =  0.2349   59
 Side 2 forced transition at x/c =  1.0001   62

   3   rms: 0.3991E-02   max: 0.1972E-01   T at   59  1
       a = 12.000      CL =  2.0826
      Cm = -0.1534     CD =  0.02919   =>   CDf =  0.00624    CDp =  0.02295

 Side 1  free  transition at x/c =  0.2342   59
 Side 2 forced transition at x/c =  1.0001   62

   4   rms: 0.8996E-04   max: 0.9075E-03   D at   69  2
       a = 12.000      CL =  2.0825
      Cm = -0.1534     CD =  0.02920   =>   CDf =  0.00624    CDp =  0.02295

 Point added to stored polar  1
 Point written to save file  000178M0.1.log                                  
 Dump file unspecified or not available
 Calculating wake trajectory ...
 Calculating source influence matrix ...

 Solving BL system ...

 Side 1  free  transition at x/c =  0.2342   59
 Side 2 forced transition at x/c =  1.0001   62

   1   rms: 0.1218E+00   max: 0.4340E+00   T at   59  1
       a = 13.000      CL =  2.1315
      Cm = -0.1436     CD =  0.03227   =>   CDf =  0.00588    CDp =  0.02638

 Side 1  free  transition at x/c =  0.2166   59
 Side 2 forced transition at x/c =  1.0001   61

   2   rms: 0.2717E-01   max: -.2671E+00   D at   59  1
       a = 13.000      CL =  2.1154
      Cm = -0.1420     CD =  0.03309   =>   CDf =  0.00603    CDp =  0.02705

 Side 1  free  transition at x/c =  0.2191   59
 Side 2 forced transition at x/c =  1.0001   61

   3   rms: 0.5917E-02   max: -.2712E-01   D at  100  1
       a = 13.000      CL =  2.1209
      Cm = -0.1428     CD =  0.03300   =>   CDf =  0.00590    CDp =  0.02710

 Side 1  free  transition at x/c =  0.2182   59
 Side 2 forced transition at x/c =  1.0001   61

   4   rms: 0.1057E-03   max: -.1073E-02   D at   59  1
       a = 13.000      CL =  2.1208
      Cm = -0.1428     CD =  0.03301   =>   CDf =  0.00591    CDp =  0.02710

 Side 1  free  transition at x/c =  0.2182   59
 Side 2 forced transition at x/c =  1.0001   61

   5   rms: 0.5395E-05   max: -.2043E-04   D at   93  1
       a = 13.000      CL =  2.1208
      Cm = -0.1428     CD =  0.03301   =>   CDf =  0.00591    CDp =  0.02710

 Point added to stored polar  1
 Point written to save file  000178M0.1.log                                  
 Dump file unspecified or not available
 Calculating wake trajectory ...
 Calculating source influence matrix ...

 Solving BL system ...

 Side 1  free  transition at x/c =  0.2182   59
 Side 2 forced transition at x/c =  1.0001   61

   1   rms: 0.1206E+00   max: 0.4266E+00   T at   59  1
       a = 14.000      CL =  2.1530
      Cm = -0.1328Got result {'DD': 0.01542, 'Dmin': 0.0155, 'LL': -1.0644}
Completed successfully in 2.84 seconds. [{'DD': 0.01542, 'Dmin': 0.0155, 'LL': -1.0644}]
     CD =  0.03773   =>   CDf =  0.00552    CDp =  0.03221

 Side 1  free  transition at x/c =  0.2014   59
 Side 2 forced transition at x/c =  1.0001   60

   2   rms: 0.2839E-01   max: -.2703E+00   D at   59  1
       a = 14.000      CL =  2.1339
      Cm = -0.1324     CD =  0.03938   =>   CDf =  0.00568    CDp =  0.03370

 Side 1  free  transition at x/c =  0.2032   59
 Side 2 forced transition at x/c =  1.0001   60

   3   rms: 0.5639E-02   max: -.3034E-01   D at   98  1
       a = 14.000      CL =  2.1387
      Cm = -0.1329     CD =  0.03919   =>   CDf =  0.00551    CDp =  0.03368

 Side 1  free  transition at x/c =  0.2023   59
 Side 2 forced transition at x/c =  1.0001   60

   4   rms: 0.1211E-03   max: -.1398E-02   D at   59  1
       a = 14.000      CL =  2.1388
      Cm = -0.1329     CD =  0.03920   =>   CDf =  0.00553    CDp =  0.03367

 Side 1  free  transition at x/c =  0.2023   59
 Side 2 forced transition at x/c =  1.0001   60

   5   rms: 0.1021E-04   max: -.3800E-04   D at   90  1
       a = 14.000      CL =  2.1388
      Cm = -0.1329     CD =  0.03920   =>   CDf =  0.00553    CDp =  0.03367

 Point added to stored polar  1
 Point written to save file  000178M0.1.log                                  
 Dump file unspecified or not available
 Calculating wake trajectory ...
 Calculating source influence matrix ...

 Solving BL system ...

 Side 1  free  transition at x/c =  0.2023   59
 Side 2 forced transition at x/c =  1.0001   60

   1   rms: 0.1272E+00   max: 0.4416E+00   D at   92  1   RLX: 0.822
       a = 15.000      CL =  2.1464
      Cm = -0.1264     CD =  0.04596   =>   CDf =  0.00555    CDp =  0.04041

 Side 1  free  transition at x/c =  0.1875   58
 Side 2 forced transition at x/c =  1.0001   60

   2   rms: 0.4745E-01   max: 0.2990E+00   D at   92  1
       a = 15.000      CL =  2.1229
      Cm = -0.1271     CD =  0.05101   =>   CDf =  0.00537    CDp =  0.04564

 Side 1  free  transition at x/c =  0.1862   58
 Side 2 forced transition at x/c =  1.0001   60

   3   rms: 0.7185E-02   max: 0.6941E-01   D at   89  1
       a = 15.000      CL =  2.1243
      Cm = -0.1281     CD =  0.05123   =>   CDf =  0.00511    CDp =  0.04612

 Side 1  free  transition at x/c =  0.1857   58
 Side 2 forced transition at x/c =  1.0001   60

   4   rms: 0.2831E-03   max: 0.3494E-02   D at   86  1
       a = 15.000      CL =  2.1242
      Cm = -0.1280     CD =  0.05119   =>   CDf =  0.00511    CDp =  0.04608

 Side 1  free  transition at x/c =  0.1857   58
 Side 2 forced transition at x/c =  1.0001   60

   5   rms: 0.4942E-05   max: 0.4660E-04   C at   60  2
       a = 15.000      CL =  2.1242
      Cm = -0.1280     CD =  0.05118   =>   CDf =  0.00511    CDp =  0.04608

 Point added to stored polar  1
 Point written to save file  000178M0.1.log                                  
 Dump file unspecified or not available

.OPERva   c>  
 XFOIL   c>  
