Job launching after 0.28 seconds in submission.
Running python job.
Changed into dir /home/simonx/Documents/Udacity/Projects/capstone/PESM_NSGA2_CST_XFoil
Importing evaluationFunctionXFoil.py
Running evaluationFunctionXFoil.main()
0
1
2
0.04
resp: 
 ===================================================
  XFOIL Version 6.97
  Copyright (C) 2000   Mark Drela, Harold Youngren

  This software comes with ABSOLUTELY NO WARRANTY,
    subject to the GNU General Public License.

  Caveat computor
 ===================================================

 File  xfoil.def  not found

   QUIT    Exit program

  .OPER    Direct operating point(s)
  .MDES    Complex mapping design routine
  .QDES    Surface speed design routine
  .GDES    Geometry design routine

   SAVE f  Write airfoil to labeled coordinate file
   PSAV f  Write airfoil to plain coordinate file
   ISAV f  Write airfoil to ISES coordinate file
   MSAV f  Write airfoil to MSES coordinate file
   REVE    Reverse written-airfoil node ordering
   DELI i  Change written-airfoil file delimiters

   LOAD f  Read buffer airfoil from coordinate file
   NACA i  Set NACA 4,5-digit airfoil and buffer airfoil
   INTE    Set buffer airfoil by interpolating two airfoils
   NORM    Buffer airfoil normalization toggle
   HALF    Halve the number of points in buffer airfoil
   XYCM rr Change CM reference location, currently  0.25000 0.00000

   BEND    Display structural properties of current airfoil

   PCOP    Set current-airfoil panel nodes directly from buffer airfoil points
   PANE    Set current-airfoil panel nodes ( 160 ) based on curvature
  .PPAR    Show/change paneling

  .PLOP    Plotting options

   WDEF f  Write  current-settings file
   RDEF f  Reread current-settings file
   NAME s  Specify new airfoil name
   NINC    Increment name version number

   Z       Zoom    | (available in all menus)
   U       Unzoom  | 

 XFOIL   c>   ...............................................

  G raphics-enable flag:        T
  S ize of plot object          10.00"
  A spect ratio of plot object   0.5500
  P age dimensions              11.00 x  8.50"
  M argins from page edges       0.00",  0.00"
  F ont size (relative)          0.0150
  W indow/screen size fraction   0.8000
  B lowup input method:        Cursor    
  O rientation of plot:        Landscape 
  C olor PostScript output?     F

      Option, Value   (or <Return>)    c>   ...............................................

  G raphics-enable flag:        F
  S ize of plot object          10.00"
  A spect ratio of plot object   0.5500
  P age dimensions              11.00 x  8.50"
  M argins from page edges       0.00",  0.00"
  F ont size (relative)          0.0150
  W indow/screen size fraction   0.8000
  B lowup input method:        Cursor    
  O rientation of plot:        Landscape 
  C olor PostScript output?     F

      Option, Value   (or <Return>)    c>  
 XFOIL   c>  
 Labeled airfoil file.  Name:  000053                                          

 Number of input coordinate points: 200
 Clockwise ordering
 Max thickness =     0.122927  at x =   0.147
 Max camber    =     0.136613  at x =   0.453

  LE  x,y  =  -0.00005   0.00162  |   Chord =   0.99993
  TE  x,y  =   0.99988   0.00006  |

 Current airfoil nodes set from buffer airfoil nodes ( 200 )

 XFOIL   c>  
 You are working with the buffer airfoil

.GDES   c>  
  i       x        y      angle
   2   0.9990   0.0005    0.038
   3   0.9978   0.0011    0.042
   4   0.9961   0.0020    0.055
   5   0.9938   0.0031    0.052
   6   0.9911   0.0044    0.087
   7   0.9880   0.0060    0.078
   8   0.9843   0.0078    0.120
   9   0.9801   0.0098    0.102
  10   0.9755   0.0121    0.134
  11   0.9704   0.0145    0.141
  12   0.9649   0.0172    0.148
  13   0.9589   0.0201    0.168
  14   0.9524   0.0232    0.188
  15   0.9455   0.0264    0.190
  16   0.9382   0.0298    0.204
  17   0.9304   0.0334    0.228
  18   0.9222   0.0372    0.230
  19   0.9135   0.0411    0.252
  20   0.9045   0.0451    0.259
  21   0.8951   0.0493    0.278
  22   0.8853   0.0536    0.292
  23   0.8751   0.0580    0.310
  24   0.8645   0.0625    0.321
  25   0.8536   0.0670    0.335
  26   0.8423   0.0717    0.356
  27   0.8307   0.0763    0.370
  28   0.8187   0.0811    0.386
  29   0.8065   0.0858    0.404
  30   0.7939   0.0906    0.423
  31   0.7810   0.0954    0.436
  32   0.7679   0.1001    0.457
  33   0.7545   0.1049    0.476
  34   0.7409   0.1096    0.496
  35   0.7270   0.1142    0.512
  36   0.7129   0.1188    0.536
  37   0.6986   0.1233    0.557
  38   0.6841   0.1277    0.569
  39   0.6694   0.1320    0.599
  40   0.6545   0.1362    0.619
  41   0.6395   0.1403    0.638
  42   0.6243   0.1442    0.665
  43   0.6091   0.1479    0.685
  44   0.5937   0.1515    0.707
  45   0.5782   0.1549    0.732
  46   0.5627   0.1581    0.755
  47   0.5471   0.1612    0.781
  48   0.5314   0.1640    0.804
  49   0.5157   0.1665    0.824
  50   0.5000   0.1689    0.851
  51   0.4843   0.1710    0.877
  52   0.4686   0.1729    0.897
  53   0.4529   0.1745    0.921
  54   0.4373   0.1759    0.947
  55   0.4218   0.1770    0.972
  56   0.4063   0.1778    0.989
  57   0.3909   0.1784    1.016
  58   0.3757   0.1786    1.043
  59   0.3605   0.1786    1.057
  60   0.3455   0.1784    1.082
  61   0.3306   0.1778    1.110
  62   0.3159   0.1770    1.125
  63   0.3014   0.1759    1.148
  64   0.2871   0.1745    1.174
  65   0.2730   0.1728    1.194
  66   0.2591   0.1709    1.216
  67   0.2455   0.1687    1.240
  68   0.2321   0.1663    1.266
  69   0.2190   0.1636    1.290
  70   0.2061   0.1607    1.321
  71   0.1935   0.1575    1.343
  72   0.1813   0.1541    1.381
  73   0.1693   0.1504    1.407
  74   0.1577   0.1466    1.449
  75   0.1464   0.1425    1.486
  76   0.1355   0.1383    1.531
  77   0.1249   0.1338    1.585
  78   0.1147   0.1292    1.639
  79   0.1049   0.1244    1.696
  80   0.0955   0.1195    1.766
  81   0.0865   0.1143    1.842
  82   0.0778   0.1091    1.924
  83   0.0696   0.1037    2.024
  84   0.0618   0.0982    2.127
  85   0.0545   0.0926    2.236
  86   0.0476   0.0869    2.375
  87   0.0411   0.0810    2.501
  88   0.0351   0.0751    2.663
  89   0.0296   0.0691    2.824
  90   0.0245   0.0631    2.991
  91   0.0199   0.0569    3.183
  92   0.0157   0.0508    3.374
  93   0.0120   0.0445    3.550
  94   0.0089   0.0382    3.757
  95   0.0062   0.0319    3.920
  96   0.0039   0.0256    4.082
  97   0.0022   0.0192    4.224
  98   0.0010   0.0128    4.319
  99   0.0002   0.0064    4.386
 100   0.0000   0.0000   10.762
 101   0.0002  -0.0016   16.130
 102   0.0010  -0.0033   13.903
 103   0.0022  -0.0048   11.386
 104   0.0039  -0.0062    9.231
 105   0.0062  -0.0076    7.492
 106   0.0089  -0.0087    6.239
 107   0.0120  -0.0097    5.218
 108   0.0157  -0.0105    4.492
 109   0.0199  -0.0110    3.873
 110   0.0245  -0.0113    3.369
 111   0.0296  -0.0113    2.969
 112   0.0351  -0.0110    2.617
 113   0.0411  -0.0104    2.306
 114   0.0476  -0.0096    2.030
 115   0.0545  -0.0084    1.807
 116   0.0618  -0.0069    1.574
 117   0.0696  -0.0050    1.378
 118   0.0778  -0.0029    1.198
 119   0.0865  -0.0005    1.022
 120   0.0955   0.0023    0.875
 121   0.1049   0.0053    0.715
 122   0.1147   0.0085    0.589
 123   0.1249   0.0120    0.442
 124   0.1355   0.0158    0.333
 125   0.1464   0.0197    0.207
 126   0.1577   0.0238    0.100
 127   0.1693   0.0280   -0.013
 128   0.1813   0.0324   -0.105
 129   0.1935   0.0368   -0.209
 130   0.2061   0.0413   -0.301
 131   0.2190   0.0458   -0.385
 132   0.2321   0.0504   -0.467
 133   0.2455   0.0549   -0.548
 134   0.2591   0.0593   -0.627
 135   0.2730   0.0637   -0.686
 136   0.2871   0.0679   -0.761
 137   0.3014   0.0720   -0.821
 138   0.3159   0.0759   -0.868
 139   0.3306   0.0796   -0.926
 140   0.3455   0.0832   -0.968
 141   0.3605   0.0865   -1.009
 142   0.3757   0.0895   -1.037
 143   0.3909   0.0923   -1.073
 144   0.4063   0.0948   -1.089
 145   0.4218   0.0970   -1.107
 146   0.4373   0.0989   -1.119
 147   0.4529   0.1006   -1.123
 148   0.4686   0.1019   -1.124
 149   0.4843   0.1029   -1.117
 150   0.5000   0.1036   -1.111
 151   0.5157   0.1040   -1.094
 152   0.5314   0.1041   -1.075
 153   0.5471   0.1039   -1.058
 154   0.5627   0.1034   -1.030
 155   0.5782   0.1026   -0.999
 156   0.5937   0.1016   -0.971
 157   0.6091   0.1003   -0.945
 158   0.6243   0.0988   -0.902
 159   0.6395   0.0970   -0.876
 160   0.6545   0.0951   -0.835
 161   0.6694   0.0929   -0.802
 162   0.6841   0.0905   -0.761
 163   0.6986   0.0880   -0.733
 164   0.7129   0.0853   -0.695
 165   0.7270   0.0825   -0.660
 166   0.7409   0.0795   -0.627
 167   0.7545   0.0765   -0.591
 168   0.7679   0.0733   -0.564
 169   0.7810   0.0701   -0.529
 170   0.7939   0.0669   -0.499
 171   0.8065   0.0635   -0.475
 172   0.8187   0.0602   -0.444
 173   0.8307   0.0568   -0.423
 174   0.8423   0.0535   -0.393
 175   0.8536   0.0501   -0.371
 176   0.8645   0.0468   -0.347
 177   0.8751   0.0435   -0.328
 178   0.8853   0.0403   -0.309
 179   0.8951   0.0371   -0.292
 180   0.9045   0.0340   -0.267
 181   0.9135   0.0310   -0.251
 182   0.9222   0.0281   -0.232
 183   0.9304   0.0253   -0.228
 184   0.9382   0.0226   -0.202
 185   0.9455   0.0200   -0.186
 186   0.9524   0.0175   -0.181
 187   0.9589   0.0152   -0.161
 188   0.9649   0.0131   -0.146
 189   0.9704   0.0110   -0.131
 190   0.9755   0.0092   -0.122
 191   0.9801   0.0075   -0.112
 192   0.9843   0.0059   -0.110
 193   0.9880   0.0045   -0.056
 194   0.9911   0.0034   -0.098
 195   0.9938   0.0023   -0.059
 196   0.9961   0.0015   -0.028
 197   0.9978   0.0008   -0.055
 198   0.9990   0.0004    0.006
 199   0.9998   0.0001   -0.042

 Maximum panel corner angle = 16.130   at  i,x,y  = 101   0.0002  -0.0016

 Enter corner angle criterion for refinement (deg):   8.065
 Enter type of spline parameter (1=uniform, 2=arclength):   1
 Enter refinement x limits:  -0.10000   1.10000
 Number of points added:           10
 Max thickness =     0.122844  at x =   0.146
 Max camber    =     0.137604  at x =   0.453

 Maximum panel corner angle = 15.422   at  i,x,y  = 103   0.0001  -0.0014

.GDES   c>  
 Buffer airfoil is not identical to current airfoil

 XFOIL   c>  
 Blunt trailing edge.  Gap =  0.00028

 Paneling parameters used...
   Number of panel nodes       160
   Panel bunching parameter    1.000
   TE/LE panel density ratio   0.150
   Refined-area/LE panel density ratio    0.200
   Top    side refined area x/c limits  1.000 1.000
   Bottom side refined area x/c limits  1.000 1.000

 XFOIL   c>  
Enter output filename   s>  
 XFOIL   c>  
.OPERi   c>   Current iteration limit:          20

Enter new iteration limit   i>  
Enter new iteration limit   i>  
Enter new iteration limit   i>  
.OPERi   c>  
 M  =    0.0000
 Re =  0.3000E+06

.OPERv   c>  
 Sonic Cp =   -420.65      Sonic Q/Qinf =    22.825


.OPERv   c>  
 Polar  1 newly created for accumulation
 Airfoil archived with polar: 000053                                          

Enter  polar save filename  OR  <return> for no file   s>  
 New polar save file available

Enter  polar dump filename  OR  <return> for no file   s>  
 Polar dump file will NOT be written

 Polar accumulation enabled

.OPERva   c>   Calculating unit vorticity distributions ...
 Calculating wake trajectory ...
 Calculating source influence matrix ...

 Solving BL system ...

 Initializing BL ...
    side            1  ...
 MRCHUE: Inverse mode at  52     Hk =   4.297
 MRCHUE: Inverse mode at  53     Hk =   5.058
 MRCHUE: Inverse mode at  54     Hk =   5.802
 MRCHUE: Inverse mode at  55     Hk =   6.535
 MRCHUE: Inverse mode at  56     Hk =   7.260
 MRCHUE: Inverse mode at  57     Hk =   7.978
 MRCHUE: Inverse mode at  58     Hk =   8.691
 MRCHUE: Inverse mode at  59     Hk =   6.834
 MRCHUE: Inverse mode at  60     Hk =   4.359
 MRCHUE: Inverse mode at  61     Hk =   2.806
 MRCHUE: Inverse mode at  85     Hk =   2.500
    side            2  ...
 MRCHUE: Inverse mode at  23     Hk =   3.984
 MRCHUE: Inverse mode at  24     Hk =   4.783
 MRCHUE: Inverse mode at  25     Hk =   5.609
 MRCHUE: Inverse mode at  26     Hk =   6.466
 MRCHUE: Inverse mode at  27     Hk =   7.351
 MRCHUE: Inverse mode at  28     Hk =   8.254
 MRCHUE: Inverse mode at  29     Hk =   9.157
 MRCHUE: Inverse mode at  30     Hk =   9.635
 MRCHUE: Inverse mode at  31     Hk =   5.561
 MRCHUE: Inverse mode at  32     Hk =   3.820
 MRCHUE: Inverse mode at  33     Hk =   2.668
 MRCHUE: Inverse mode at  34     Hk =   2.500

 Side 1  free  transition at x/c =  0.5526   59
 Side 2  free  transition at x/c =  0.1974   30

   1   rms: 0.2795E+01   max: 0.1940E+02   T at   30  2   RLX: 0.040
       a =  2.000      CL =  1.8622
      Cm = -0.3415     CD =  0.01646   =>   CDf =  0.00778    CDp =  0.00868

 Side 1  free  transition at x/c =  0.5535   59
 Side 2  free  transition at x/c =  0.1833   30

   2   rms: 0.3723E+00   max: -.1357E+01   D at   40  2   RLX: 0.368
       a =  2.000      CL =  1.8108
      Cm = -0.3308     CD =  0.01716   =>   CDf =  0.00744    CDp =  0.00972

 Side 1  free  transition at x/c =  0.5615   59
 Side 2  free  transition at x/c =  0.1831   30

   3   rms: 0.2458E+00   max: -.1031E+01   D at   39  2   RLX: 0.485
       a =  2.000      CL =  1.7778
      Cm = -0.3237     CD =  0.01786   =>   CDf =  0.00782    CDp =  0.01004

 MRCHDU: Convergence failed at  59  side 1    Res =  0.1044E+02
 MRCHDU: Convergence failed at  60  side 1    Res =  0.7387E+01
 MRCHDU: Convergence failed at  61  side 1    Res =  0.2517E+01
 MRCHDU: Convergence failed at  62  side 1    Res =  0.4907E+01
 MRCHDU: Convergence failed at  63  side 1    Res =  0.8918E+01
 MRCHDU: Convergence failed at  64  side 1    Res =  0.1581E+02
 MRCHDU: Convergence failed at  65  side 1    Res =  0.2428E+02
 MRCHDU: Convergence failed at  66  side 1    Res =  0.3069E+02
 MRCHDU: Convergence failed at  67  side 1    Res =  0.3208E+02
 MRCHDU: Convergence failed at  68  side 1    Res =  0.2833E+02
 MRCHDU: Convergence failed at  69  side 1    Res =  0.2392E+02
 MRCHDU: Convergence failed at  70  side 1    Res =  0.2010E+02
 MRCHDU: Convergence failed at  71  side 1    Res =  0.1703E+02
 MRCHDU: Convergence failed at  72  side 1    Res =  0.1471E+02
 MRCHDU: Convergence failed at  73  side 1    Res =  0.1292E+02
 MRCHDU: Convergence failed at  74  side 1    Res =  0.8784E+01
 MRCHDU: Convergence failed at  75  side 1    Res =  0.1080E+02
 MRCHDU: Convergence failed at  76  side 1    Res =  0.1357E+02
 MRCHDU: Convergence failed at  77  side 1    Res =  0.1788E+02
 MRCHDU: Convergence failed at  78  side 1    Res =  0.2641E+02
 MRCHDU: Convergence failed at  79  side 1    Res =  0.5074E+02
 MRCHDU: Convergence failed at  80  side 1    Res =  0.3417E+04
 MRCHDU: Convergence failed at  81  side 1    Res =  0.5278E+02
 MRCHDU: Convergence failed at  82  side 1    Res =  0.2441E+02
 MRCHDU: Convergence failed at  83  side 1    Res =  0.1913E+02
 MRCHDU: Convergence failed at  84  side 1    Res =  0.2331E+02
 Side 1  free  transition at x/c =  0.5740   59
 Side 2  free  transition at x/c =  0.1811   31

   4   rms: 0.6953E+00   max: 0.2904E+01   D at   80  2   RLX: 0.517
       a =  2.000      CL =  1.9136
      Cm = -0.4272     CD =  0.00760   =>   CDf =  0.00528    CDp =  0.00232

 MRCHDU: Convergence failed at  31  side 2    Res =  0.1554E+02
 MRCHDU: Convergence failed at  32  side 2    Res =  0.3637E+02
 MRCHDU: Convergence failed at  33  side 2    Res =  0.1029E+04
 MRCHDU: Convergence failed at  34  side 2    Res =  0.1397E+03
 MRCHDU: Convergence failed at  35  side 2    Res =  0.1284E+02
 MRCHDU: Convergence failed at  36  side 2    Res =  0.1452E+02
 MRCHDU: Convergence failed at  37  side 2    Res =  0.1490E+02
 MRCHDU: Convergence failed at  38  side 2    Res =  0.2573E+02
 MRCHDU: Convergence failed at  39  side 2    Res =  0.3008E+02
 MRCHDU: Convergence failed at  40  side 2    Res =  0.1199E+03
 MRCHDU: Convergence failed at  41  side 2    Res =  0.2229E+02
 MRCHDU: Convergence failed at  42  side 2    Res =  0.2402E+02
 MRCHDU: Convergence failed at  43  side 2    Res =  0.2645E+02
 MRCHDU: Convergence failed at  44  side 2    Res =  0.2002E+02
 MRCHDU: Convergence failed at  45  side 2    Res =  0.6009E+02
 MRCHDU: Convergence failed at  46  side 2    Res =  0.1945E+02
 MRCHDU: Convergence failed at  47  side 2    Res =  0.6496E+02
 MRCHDU: Convergence failed at  48  side 2    Res =  0.2890E+03
 MRCHDU: Convergence failed at  49  side 2    Res =  0.1355E+03
 MRCHDU: Convergence failed at  50  side 2    Res =  0.5468E+02
 MRCHDU: Convergence failed at  51  side 2    Res =  0.6820E+02
 MRCHDU: Convergence failed at  52  side 2    Res =  0.3682E+02
 MRCHDU: Convergence failed at  53  side 2    Res =  0.3929E+02
 MRCHDU: Convergence failed at  54  side 2    Res =  0.1577E+04
 MRCHDU: Convergence failed at  55  side 2    Res =  0.6768E+02
 MRCHDU: Convergence failed at  56  side 2    Res =  0.4793E+02
 MRCHDU: Convergence failed at  57  side 2    Res =  0.1030E+03
 MRCHDU: Convergence failed at  58  side 2    Res =  0.4565E+02
 MRCHDU: Convergence failed at  59  side 2    Res =  0.9451E+03
 MRCHDU: Convergence failed at  60  side 2    Res =  0.3705E+03
 MRCHDU: Convergence failed at  61  side 2    Res =  0.2235E+03
 MRCHDU: Convergence failed at  62  side 2    Res =  0.1111E+04
 MRCHDU: Convergence failed at  63  side 2    Res =  0.1430E+03
 MRCHDU: Convergence failed at  64  side 2    Res =  0.8204E+02
 MRCHDU: Convergence failed at  65  side 2    Res =  0.5637E+02
 MRCHDU: Convergence failed at  66  side 2    Res =  0.4262E+02
 MRCHDU: Convergence failed at  67  side 2    Res =  0.3483E+02
 MRCHDU: Convergence failed at  68  side 2    Res =  0.2747E+02
 MRCHDU: Convergence failed at  69  side 2    Res =  0.2687E+02
 MRCHDU: Convergence failed at  70  side 2    Res =  0.2347E+02
 MRCHDU: Convergence failed at  71  side 2    Res =  0.2287E+02
 MRCHDU: Convergence failed at  72  side 2    Res =  0.2724E+02
 MRCHDU: Convergence failed at  73  side 2    Res =  0.4416E+04
 Side 1  free  transition at x/c =  0.5649   59
 Side 2  free  transition at x/c =  0.1738   30

   5   rms: 0.6166E+00   max: 0.4746E+01   T at   30  2   RLX: 0.311
       a =  2.000      CL =  1.6126
      Cm = -0.3128     CD =  0.01747   =>   CDf =  0.00607    CDp =  0.01140

 MRCHDU: Convergence failed at  30  side 2    Res =  0.1785E+02
 MRCHDU: Convergence failed at  69  side 2    Res =  0.1442E+00
 MRCHDU: Convergence failed at  70  side 2    Res =  0.1693E+00
 MRCHDU: Convergence failed at  71  side 2    Res =  0.1913E+00
 MRCHDU: Convergence failed at  72  side 2    Res =  0.2104E+00
 MRCHDU: Convergence failed at  73  side 2    Res =  0.2272E+00
 MRCHDU: Convergence failed at  74  side 2    Res =  0.3458E+00
 MRCHDU: Convergence failed at  75  side 2    Res =  0.4507E+00
 MRCHDU: Convergence failed at  76  side 2    Res =  0.6607E+00
 MRCHDU: Convergence failed at  77  side 2    Res =  0.8796E+00
 MRCHDU: Convergence failed at  78  side 2    Res =  0.1402E+01
 Side 1  free  transition at x/c =  0.5714   59
 Side 2  free  transition at x/c =  0.1559   29

   6   rms: 0.8999E+00   max: 0.1154E+02   T at   29  2   RLX: 0.122
       a =  2.000      CL =  1.5884
      Cm = -0.3237     CD =  0.06492   =>   CDf =  0.00575    CDp =  0.05917

 Side 1  free  transition at x/c =  0.5746   58
 Side 2  free  transition at x/c =  0.1428   29

   7   rms: 0.1143E+01   max: 0.1104E+02   T at   29  2   RLX: 0.082
       a =  2.000      CL =  1.5161
      Cm = -0.3052     CD =  0.06871   =>   CDf =  0.00544    CDp =  0.06328

 Side 1  free  transition at x/c =  0.5770   58
 Side 2  free  transition at x/c =  0.1336   29

   8   rms: 0.1118E+01   max: 0.5526E+01   T at   29  2   RLX: 0.152
       a =  2.000      CL =  1.4149
      Cm = -0.2860     CD =  0.05155   =>   CDf =  0.00551    CDp =  0.04604

 MRCHDU: Convergence failed at  70  side 1    Res =  0.3747E+00
 MRCHDU: Convergence failed at  71  side 1    Res =  0.3403E+00
 MRCHDU: Convergence failed at  72  side 1    Res =  0.3924E+00
 MRCHDU: Convergence failed at  73  side 1    Res =  0.8844E+00
 MRCHDU: Convergence failed at  75  side 1    Res =  0.1375E+01
 MRCHDU: Convergence failed at  76  side 1    Res =  0.6866E+00
 Side 1  free  transition at x/c =  0.5853   58
 Side 2  free  transition at x/c =  0.1306   29

   9   rms: 0.8250E+00   max: 0.1120E+02   T at   29  2   RLX: 0.076
       a =  2.000      CL =  1.4767
      Cm = -0.3229     CD =  0.05269   =>   CDf =  0.00613    CDp =  0.04656

 Side 1  free  transition at x/c =  0.5858   58
 Side 2  free  transition at x/c =  0.1240   29

  10   rms: 0.1009E+01   max: 0.6258E+01   T at   29  2   RLX: 0.170
       a =  2.000      CL =  1.3091
      Cm = -0.2890     CD =  0.04254   =>   CDf =  0.00607    CDp =  0.03648

 Side 1  free  transition at x/c =  0.5881   57
 Side 2  free  transition at x/c =  0.1129   29

  11   rms: 0.6351E+00   max: 0.5267E+01   T at   29  2   RLX: 0.216
       a =  2.000      CL =  1.1751
      Cm = -0.2545     CD =  0.03308   =>   CDf =  0.00563    CDp =  0.02745

 Side 1  free  transition at x/c =  0.5892   56
 Side 2  free  transition at x/c =  0.1027   29

  12   rms: 0.3956E+01   max: -.6527E+02   T at    2  2   RLX: 0.008
       a =  2.000      CL =  1.1653
      Cm = -0.2511     CD =  0.03618   =>   CDf =  0.00513    CDp =  0.03105

 Side 1  free  transition at x/c =  0.5892   57
 Side 2  free  transition at x/c =  0.1021   28

  13   rms: 0.1014E+01   max: -.1317E+02   D at    2  1   RLX: 0.038
       a =  2.000      CL =  1.1649
      Cm = -0.2474     CD =  0.03664   =>   CDf =  0.00521    CDp =  0.03143

 Side 1  free  transition at x/c =  0.5892   57
 Side 2  free  transition at x/c =  0.1001   28

  14   rms: 0.4311E+00   max: 0.3805E+01   T at   28  2   RLX: 0.282
       a =  2.000      CL =  1.0784
      Cm = -0.2212     CD =  0.03097   =>   CDf =  0.00527    CDp =  0.02570

 Side 1  free  transition at x/c =  0.5895   56
 Side 2  free  transition at x/c =  0.0922   28

  15   rms: 0.5064E+00   max: 0.4497E+01   T at   28  2   RLX: 0.218
       a =  2.000      CL =  1.0392
      Cm = -0.1999     CD =  0.03559   =>   CDf =  0.00488    CDp =  0.03072

 Side 1  free  transition at x/c =  0.5894   56
 Side 2  free  transition at x/c =  0.0936   28

  16   rms: 0.3306E+00   max: -.1713E+01   T at   29  2   RLX: 0.292
       a =  2.000      CL =  0.9534
      Cm = -0.1719     CD =  0.03942   =>   CDf =  0.00471    CDp =  0.03471

 TRCHEK2: N2 convergence failed.
 x:  0.25771  0.27626  0.27626  N:  8.967  9.000  9.089  Nx:   6.407   dN: 0.893E-01
 Side 1  free  transition at x/c =  0.5894   56
 Side 2  free  transition at x/c =  0.2353   38

  17   rms: 0.7123E+00   max: 0.5404E+01   T at   38  2   RLX: 0.208
       a =  2.000      CL =  0.9894
      Cm = -0.1918     CD =  0.02985   =>   CDf =  0.00450    CDp =  0.02535

 MRCHDU: Convergence failed at  62  side 2    Res =  0.1198E+01
 MRCHDU: Convergence failed at  63  side 2    Res =  0.1525E+02
 MRCHDU: Convergence failed at  64  side 2    Res =  0.3200E+01
 MRCHDU: Convergence failed at  65  side 2    Res =  0.1806E+01
 MRCHDU: Convergence failed at  66  side 2    Res =  0.1813E+01
 MRCHDU: Convergence failed at  67  side 2    Res =  0.2775E+01
 MRCHDU: Convergence failed at  68  side 2    Res =  0.5474E+01
 MRCHDU: Convergence failed at  69  side 2    Res =  0.2541E+01
 Side 1  free  transition at x/c =  0.5886   56
 Side 2  free  transition at x/c =  0.1660   34

  18   rms: 0.6194E+00   max: 0.8365E+01   T at   34  2   RLX: 0.179
       a =  2.000      CL =  0.9575
      Cm = -0.1806     CD =  0.03163   =>   CDf =  0.00446    CDp =  0.02717

 Side 1  free  transition at x/c =  0.5885   56
 Side 2  free  transition at x/c =  0.1266   31

  19   rms: 0.3013E+00   max: -.1525E+01   D at   82  2   RLX: 0.328
       a =  2.000      CL =  1.0478
      Cm = -0.1927     CD =  0.02820   =>   CDf =  0.00448    CDp =  0.02372

 Side 1  free  transition at x/c =  0.5885   57
 Side 2  free  transition at x/c =  0.1082   29

  20   rms: 0.3275E+00   max: -.1690E+01   T at   29  2   RLX: 0.296
       a =  2.000      CL =  1.1515
      Cm = -0.2079     CD =  0.02851   =>   CDf =  0.00474    CDp =  0.02377

 Side 1  free  transition at x/c =  0.5881   57
 Side 2  free  transition at x/c =  0.1093   29

  21   rms: 0.3583E+00   max: -.1323E+01   D at   81  2   RLX: 0.378
       a =  2.000      CL =  1.3013
      Cm = -0.2343     CD =  0.02552   =>   CDf =  0.00478    CDp =  0.02075

 Side 1  free  transition at x/c =  0.5874   58
 Side 2  free  transition at x/c =  0.1132   28

  22   rms: 0.3964E+00   max: 0.1922E+01   T at   28  2   RLX: 0.392
       a =  2.000      CL =  1.4577
      Cm = -0.2640     CD =  0.02218   =>   CDf =  0.00513    CDp =  0.01705

 Side 1  free  transition at x/c =  0.5864   59
 Side 2  free  transition at x/c =  0.1209   28

  23   rms: 0.2216E+00   max: -.1085E+01   T at   28  2   RLX: 0.461
       a =  2.000      CL =  1.5532
      Cm = -0.2808     CD =  0.02174   =>   CDf =  0.00571    CDp =  0.01604

 Side 1  free  transition at x/c =  0.5854   59
 Side 2  free  transition at x/c =  0.1291   28

  24   rms: 0.2800E+01   max: 0.1868E+02   T at   28  2   RLX: 0.029
       a =  2.000      CL =  1.5331
      Cm = -0.2761     CD =  0.02315   =>   CDf =  0.00592    CDp =  0.01722

 Side 1  free  transition at x/c =  0.5855   59
 Side 2  free  transition at x/c =  0.1266   28

  25   rms: 0.2327E+00   max: -.7716E+00   D at   66  2   RLX: 0.648
       a =  2.000      CL =  1.6303
      Cm = -0.2935     CD =  0.02178   =>   CDf =  0.00549    CDp =  0.01629
 VISCAL:  Convergence failed
 Calculating wake trajectory ...
 Calculating source influence matrix ...

 Solving BL system ...

 Side 1  free  transition at x/c =  0.5843   60
 Side 2  free  transition at x/c =  0.1361   28

   1   rms: 0.2671E+00   max: -.2169E+01   T at   28  2   RLX: 0.231
       a =  3.000      CL =  1.6776
      Cm = -0.2971     CD =  0.02077   =>   CDf =  0.00630    CDp =  0.01447

 Side 1  free  transition at x/c =  0.5800   59
 Side 2  free  transition at x/c =  0.1440   28

   2   rms: 0.3476E+01   max: -.2397E+02   T at   28  2   RLX: 0.021
       a =  3.000      CL =  1.6910
      Cm = -0.2996     CD =  0.02151   =>   CDf =  0.00640    CDp =  0.01511

 Side 1  free  transition at x/c =  0.5795   59
 Side 2  free  transition at x/c =  0.1484   29

   3   rms: 0.1752E+00   max: -.1667E+01   T at   29  2   RLX: 0.300
       a =  3.000      CL =  1.7243
      Cm = -0.3009     CD =  0.01888   =>   CDf =  0.00710    CDp =  0.01178

 Side 1  free  transition at x/c =  0.5737   59
 Side 2  free  transition at x/c =  0.1538   29

   4   rms: 0.2103E+00   max: -.1594E+01   T at   29  2   RLX: 0.314
       a =  3.000      CL =  1.7516
      Cm = -0.3029     CD =  0.01935   =>   CDf =  0.00660    CDp =  0.01275

 Side 1  free  transition at x/c =  0.5699   60
 Side 2  free  transition at x/c =  0.1633   29

   5   rms: 0.1450E+00   max: -.1396E+01   T at   29  2   RLX: 0.358
       a =  3.000      CL =  1.7727
      Cm = -0.3042     CD =  0.01899   =>   CDf =  0.00713    CDp =  0.01186

 Side 1  free  transition at x/c =  0.5671   60
 Side 2  free  transition at x/c =  0.1668   29

   6   rms: 0.1268E+00   max: -.1034E+01   T at   29  2   RLX: 0.484
       a =  3.000      CL =  1.7904
      Cm = -0.3056     CD =  0.01930   =>   CDf =  0.00693    CDp =  0.01237

 Side 1  free  transition at x/c =  0.5650   60
 Side 2  free  transition at x/c =  0.1751   29

   7   rms: 0.2010E+00   max: -.1356E+01   T at   29  2   RLX: 0.369
       a =  3.000      CL =  1.8017
      Cm = -0.3069     CD =  0.01940   =>   CDf =  0.00701    CDp =  0.01239

 Side 1  free  transition at x/c =  0.5642   60
 Side 2  free  transition at x/c =  0.1847   30

   8   rms: 0.3031E-01   max: -.3959E+00   T at   30  2
       a =  3.000      CL =  1.8190
      Cm = -0.3093     CD =  0.01841   =>   CDf =  0.00742    CDp =  0.01099

 Side 1  free  transition at x/c =  0.5629   60
 Side 2  free  transition at x/c =  0.1924   30

   9   rms: 0.4694E-01   max: -.2252E+00   D at   31  2
       a =  3.000      CL =  1.8201
      Cm = -0.3095     CD =  0.01839   =>   CDf =  0.00740    CDp =  0.01099

 Side 1  free  transition at x/c =  0.5628   60
 Side 2  free  transition at x/c =  0.1947   30

  10   rms: 0.3057E-02   max: 0.2520E-01   D at   32  2
       a =  3.000      CL =  1.8200
      Cm = -0.3095     CD =  0.01839   =>   CDf =  0.00748    CDp =  0.01092

 Side 1  free  transition at x/c =  0.5628   60
 Side 2  free  transition at x/c =  0.1944   30

  11   rms: 0.4178E-04   max: 0.3715E-03   D at   31  2
       a =  3.000      CL =  1.8200
      Cm = -0.3095     CD =  0.01839   =>   CDf =  0.00747    CDp =  0.01092

 Point added to stored polar  1
 Point written to save file  000053M0.04.log                                 
 Dump file unspecified or not available
 Calculating wake trajectory ...
 Calculating source influence matrix ...

 Solving BL system ...

 Side 1  free  transition at x/c =  0.5628   60
 Side 2  free  transition at x/c =  0.1944   30

   1   rms: 0.1923E+00   max: -.1565E+01   T at   30  2   RLX: 0.319
       a =  4.000      CL =  1.8589
      Cm = -0.3103     CD =  0.01877   =>   CDf =  0.00749    CDp =  0.01128

 Side 1  free  transition at x/c =  0.5568   59
 Side 2  free  transition at x/c =  0.2084   31

   2   rms: 0.1164E+00   max: 0.9164E+00   D at   31  2
       a =  4.000      CL =  1.9083
      Cm = -0.3059     CD =  0.01939   =>   CDf =  0.00722    CDp =  0.01216

 Side 1  free  transition at x/c =  0.5394   59
 Side 2  free  transition at x/c =  0.2216   31

   3   rms: 0.2300E-01   max: -.1709E+00   D at   59  1
       a =  4.000      CL =  1.9152
      Cm = -0.3071     CD =  0.01930   =>   CDf =  0.00755    CDp =  0.01175

 Side 1  free  transition at x/c =  0.5419   59
 Side 2  free  transition at x/c =  0.2237   31

   4   rms: 0.2527E-02   max: -.1124E-01   D at   32  2
       a =  4.000      CL =  1.9149
      Cm = -0.3071     CD =  0.01935   =>   CDf =  0.00744    CDp =  0.01191

 Side 1  free  transition at x/c =  0.5414   59
 Side 2  free  transition at x/c =  0.2238   31

   5   rms: 0.2202E-04   max: 0.1249E-03   T at   31  2
       a =  4.000      CL =  1.9149
      Cm = -0.3071     CD =  0.01935   =>   CDf =  0.00745    CDp =  0.01190

 Point added to stored polar  1
 Point written to save file  000053M0.04.log                                 
 Dump file unspecified or not available
 Calculating wake trajectory ...
 Calculating source influence matrix ...

 Solving BL system ...

 Side 1  free  transition at x/c =  0.5414   59
 Side 2  free  transition at x/c =  0.2238   31

   1   rms: 0.1508E+00   max: -.1162E+01   T at   31  2   RLX: 0.430
       a =  5.000      CL =  1.9492
      Cm = -0.3050     CD =  0.01990   =>   CDf =  0.00719    CDp =  0.01271

 Side 1  free  transition at x/c =  0.5305   60
 Side 2  free  transition at x/c =  0.2354   31

   2   rms: 0.5774E+01   max: 0.1024E+03   T at    2  1   RLX: 0.012
       a =  5.000      CL =  1.9487
      Cm = -0.3043     CD =  0.02073   =>   CDf =  0.00750    CDp =  0.01323

 Side 1  free  transition at x/c =  0.5304   60
 Side 2  free  transition at x/c =  0.2356   31

   3   rms: 0.1675E+00   max: -.1337E+01   T at   31  2   RLX: 0.374
       a =  5.000      CL =  1.9715
      Cm = -0.3046     CD =  0.02053   =>   CDf =  0.00750    CDp =  0.01303

 Side 1  free  transition at x/c =  0.5270   59
 Side 2  free  transition at x/c =  0.2436   31

   4   rms: 0.9787E-01   max: -.5630E+00   T at   31  2   RLX: 0.888
       a =  5.000      CL =  1.9937
      Cm = -0.3026     CD =  0.02068   =>   CDf =  0.00749    CDp =  0.01319

 Side 1  free  transition at x/c =  0.5202   59
 Side 2  free  transition at x/c =  0.2565   32

   5   rms: 0.1855E-01   max: 0.2029E+00   D at   32  2
       a =  5.000      CL =  2.0010
      Cm = -0.3032     CD =  0.02061   =>   CDf =  0.00743    CDp =  0.01319

 Side 1  free  transition at x/c =  0.5198   59
 Side 2  free  transition at x/c =  0.2564   32

   6   rms: 0.1021E-02   max: 0.1058E-01   D at   33  2
       a =  5.000      CL =  2.0012
      Cm = -0.3033     CD =  0.02061   =>   CDf =  0.00740    CDp =  0.01321

 Side 1  free  transition at x/c =  0.5198   59
 Side 2  free  transition at x/c =  0.2564   32

   7   rms: 0.3585E-05   max: 0.4504E-04   D at   33  2
       a =  5.000      CL =  2.0012
      Cm = -0.3033     CD =  0.02061   =>   CDf =  0.00740    CDp =  0.01321

 Point added to stored polar  1
 Point written to save file  000053M0.04.log                                 
 Dump file unspecified or not available
 Calculating wake trajectory ...
 Calculating source influence matrix ...

 Solving BL system ...

 Side 1  free  transition at x/c =  0.5198   59
 Side 2  free  transition at x/c =  0.2564   32

   1   rms: 0.1522E+00   max: -.1190E+01   T at   32  2   RLX: 0.420
       a =  6.000      CL =  2.0323
      Cm = -0.3008     CD =  0.02124   =>   CDf =  0.00742    CDp =  0.01381

 Side 1  free  transition at x/c =  0.5097   59
 Side 2  free  transition at x/c =  0.2677   32

   2   rms: 0.1431E+00   max: -.1681E+01   T at   32  2   RLX: 0.297
       a =  6.000      CL =  2.0535
      Cm = -0.3009     CD =  0.02245   =>   CDf =  0.00723    CDp =  0.01522

 MRCHDU: Convergence failed at  33  side 2    Res =  0.1723E+01
 MRCHDU: Convergence failed at  34  side 2    Res =  0.7024E+02
 MRCHDU: Convergence failed at  35  side 2    Res =  0.2645E+01
 MRCHDU: Convergence failed at  36  side 2    Res =  0.2245E+01
 MRCHDU: Convergence failed at  37  side 2    Res =  0.2450E+01
 MRCHDU: Convergence failed at  38  side 2    Res =  0.3126E+01
 MRCHDU: Convergence failed at  39  side 2    Res =  0.3928E+01
 MRCHDU: Convergence failed at  40  side 2    Res =  0.4967E+01
 MRCHDU: Convergence failed at  41  side 2    Res =  0.6139E+01
 MRCHDU: Convergence failed at  42  side 2    Res =  0.7369E+01
 MRCHDU: Convergence failed at  43  side 2    Res =  0.8720E+01
 MRCHDU: Convergence failed at  44  side 2    Res =  0.9938E+01
 MRCHDU: Convergence failed at  45  side 2    Res =  0.1081E+02
 MRCHDU: Convergence failed at  46  side 2    Res =  0.1099E+02
 MRCHDU: Convergence failed at  47  side 2    Res =  0.1053E+02
 MRCHDU: Convergence failed at  48  side 2    Res =  0.9462E+01
 MRCHDU: Convergence failed at  49  side 2    Res =  0.8132E+01
 MRCHDU: Convergence failed at  50  side 2    Res =  0.6725E+01
 MRCHDU: Convergence failed at  51  side 2    Res =  0.4694E+01
 MRCHDU: Convergence failed at  52  side 2    Res =  0.3806E+01
 MRCHDU: Convergence failed at  53  side 2    Res =  0.3103E+01
 MRCHDU: Convergence failed at  54  side 2    Res =  0.2516E+01
 MRCHDU: Convergence failed at  55  side 2    Res =  0.2041E+01
 MRCHDU: Convergence failed at  56  side 2    Res =  0.1640E+01
 MRCHDU: Convergence failed at  57  side 2    Res =  0.1322E+01
 MRCHDU: Convergence failed at  58  side 2    Res =  0.1226E+01
 Side 1  free  transition at x/c =  0.5070   59
 Side 2  free  transition at x/c =  0.2815   32

   3   rms: 0.1821E+00   max: -.9215E+00   D at   58  2   RLX: 0.543
       a =  6.000      CL =  2.0484
      Cm = -0.2951     CD =  0.02149   =>   CDf =  0.00674    CDp =  0.01475

 Side 1  free  transition at x/c =  0.5017   59
 Side 2  free  transition at x/c =  0.2861   33

   4   rms: 0.6789E-01   max: -.4247E+00   T at   33  2
       a =  6.000      CL =  2.0698
      Cm = -0.2965     CD =  0.02221   =>   CDf =  0.00754    CDp =  0.01467

 Side 1  free  transition at x/c =  0.4978   59
 Side 2  free  transition at x/c =  0.2934   33

   5   rms: 0.2138E-01   max: -.1903E+00   D at   36  2
       a =  6.000      CL =  2.0706
      Cm = -0.2966     CD =  0.02231   =>   CDf =  0.00731    CDp =  0.01499

 Side 1  free  transition at x/c =  0.4981   59
 Side 2  free  transition at x/c =  0.2907   33

   6   rms: 0.3127E-02   max: -.2411E-01   D at   36  2
       a =  6.000      CL =  2.0707
      Cm = -0.2966     CD =  0.02231   =>   CDf =  0.00732    CDp =  0.01499

 Side 1  free  transition at x/c =  0.4981   59
 Side 2  free  transition at x/c =  0.2909   33

   7   rms: 0.2518E-04   max: 0.4233E-03   D at   35  2
       a =  6.000      CL =  2.0707
      Cm = -0.2966     CD =  0.02231   =>   CDf =  0.00732    CDp =  0.01499

 Point added to stored polar  1
 Point written to save file  000053M0.04.log                                 
 Dump file unspecified or not available
 Calculating wake trajectory ...
 Calculating source influence matrix ...

 Solving BL system ...

 Side 1  free  transition at x/c =  0.4981   59
 Side 2  free  transition at x/c =  0.2909   33

   1   rms: 0.1528E+00   max: -.1190E+01   T at   33  2   RLX: 0.420
       a =  7.000      CL =  2.0995
      Cm = -0.2939     CD =  0.02308   =>   CDf =  0.00734    CDp =  0.01574

 Side 1  free  transition at x/c =  0.4898   58
 Side 2  free  transition at x/c =  0.3048   34

   2   rms: 0.1551E+00   max: -.1279E+01   T at   34  2   RLX: 0.391
       a =  7.000      CL =  2.1081
      Cm = -0.2912     CD =  0.02410   =>   CDf =  0.00708    CDp =  0.01702

 Side 1  free  transition at x/c =  0.4840   59
 Side 2  free  transition at x/c =  0.3134   33

   3   rms: 0.9046E-01   max: -.6266E+00   T at   33  2   RLX: 0.798
       a =  7.000      CL =  2.1251
      Cm = -0.2891     CD =  0.02469   =>   CDf =  0.00727    CDp =  0.01742

 Side 1  free  transition at x/c =  0.4772   59
 Side 2  free  transition at x/c =  0.3299   34

   4   rms: 0.2260E-01   max: 0.2626E+00   D at   34  2
       a =  7.000      CL =  2.1348
      Cm = -0.2896     CD =  0.02457   =>   CDf =  0.00726    CDp =  0.01731

 Side 1  free  transition at x/c =  0.4765   59
 Side 2  free  transition at x/c =  0.3311   34

   5   rms: 0.1160E-02   max: 0.1339E-01   D at   35  2
       a =  7.000      CL =  2.1356
      Cm = -0.2897     CD =  0.02455   =>   CDf =  0.00725    CDp =  0.01730

 Side 1  free  transition at x/c =  0.4765   59
 Side 2  free  transition at x/c =  0.3313   34

   6   rms: 0.2539E-04   max: 0.2252E-03   D at   35  2
       a =  7.000      CL =  2.1356
      Cm = -0.2897     CD =  0.02455   =>   CDf =  0.00726    CDp =  0.01730

 Point added to stored polar  1
 Point written to save file  000053M0.04.log                                 
 Dump file unspecified or not available
 Calculating wake trajectory ...
 Calculating source influence matrix ...

 Solving BL system ...

 Side 1  free  transition at x/c =  0.4765   59
 Side 2  free  transition at x/c =  0.3313   34

   1   rms: 0.1617E+00   max: -.1216E+01   T at   34  2   RLX: 0.411
       a =  8.000      CL =  2.1704
      Cm = -0.2884     CD =  0.02539   =>   CDf =  0.00692    CDp =  0.01847

 Side 1  free  transition at x/c =  0.4687   59
 Side 2  free  transition at x/c =  0.3566   35

   2   rms: 0.1291E+00   max: 0.1537E+01   D at    2  1   RLX: 0.654
       a =  8.000      CL =  2.1736
      Cm = -0.2827     CD =  0.02697   =>   CDf =  0.00722    CDp =  0.01975

 Side 1  free  transition at x/c =  0.4576   59
 Side 2  free  transition at x/c =  0.3686   35

   3   rms: 0.4190E-01   max: -.2992E+00   T at   35  2
       a =  8.000      CL =  2.1941
      Cm = -0.2825     CD =  0.02740   =>   CDf =  0.00719    CDp =  0.02021

 Side 1  free  transition at x/c =  0.4552   58
 Side 2  free  transition at x/c =  0.3869   36

   4   rms: 0.3033E-01   max: 0.4049E+00   C at   36  2
       a =  8.000      CL =  2.1890
      Cm = -0.2818     CD =  0.02760   =>   CDf =  0.00710    CDp =  0.02050

 Side 1  free  transition at x/c =  0.4543   58
 Side 2  free  transition at x/c =  0.3839   36

   5   rms: 0.5887E-02   max: 0.6418E-01   D at   37  2
       a =  8.000      CL =  2.1891
      Cm = -0.2818     CD =  0.02759   =>   CDf =  0.00708    CDp =  0.02051

 Side 1  free  transition at x/c =  0.4543   58
 Side 2  free  transition at x/c =  0.3815   36

   6   rms: 0.3025E-03   max: -.3301E-02   D at   39  2
       a =  8.000      CL =  2.1891
      Cm = -0.2818     CD =  0.02759   =>   CDf =  0.00708    CDp =  0.02051

 Side 1  free  transition at x/c =  0.4543   58
 Side 2  free  transition at x/c =  0.3815   36

   7   rms: 0.1869E-05   max: 0.1221E-04   T at   72  2
       a =  8.000      CL =  2.1891
      Cm = -0.2818     CD =  0.02759   =>   CDf =  0.00708    CDp =  0.02051

 Point added to stored polar  1
 Point written to save file  000053M0.04.log                                 
 Dump file unspecified or not available
 Calculating wake trajectory ...
 Calculating source influence matrix ...

 Solving BL system ...

 Side 1  free  transition at x/c =  0.4543   58
 Side 2  free  transition at x/c =  0.3815   36

   1   rms: 0.1450E+00   max: -.9772E+00   T at   36  2   RLX: 0.512
       a =  9.000      CL =  2.2026
      Cm = -0.2760     CD =  0.02988   =>   CDf =  0.00710    CDp =  0.02277

 Side 1  free  transition at x/c =  0.4382   57
 Side 2  free  transition at x/c =  0.4141   38

   2   rms: 0.7969E-01   max: -.5085E+00   C at   38  2   RLX: 0.983
       a =  9.000      CL =  2.1917
      Cm = -0.2675     CD =  0.03309   =>   CDf =  0.00673    CDp =  0.02637

 Side 1  free  transition at x/c =  0.4241   58
 Side 2  free  transition at x/c =  0.4311   38

   3   rms: 0.4978E-01   max: -.3151E+00   T at   38  2
       a =  9.000      CL =  2.2093
      Cm = -0.2702     CD =  0.03263   =>   CDf =  0.00694    CDp =  0.02570

 Side 1  free  transition at x/c =  0.4243   58
 Side 2  free  transition at x/c =  0.4542   39

   4   rms: 0.1781E-01   max: -.2240E+00   C at   39  2
       a =  9.000      CL =  2.2133
      Cm = -0.2708     CD =  0.03253   =>   CDf =  0.00689    CDp =  0.02564

 Side 1  free  transition at x/c =  0.4232   58
 Side 2  free  transition at x/c =  0.4577   40

   5   rms: 0.5941E-02   max: -.9685E-01   D at   39  2
       a =  9.000      CL =  2.2136
      Cm = -0.2708     CD =  0.03253   =>   CDf =  0.00692    CDp =  0.02561

 Side 1  free  transition at x/c =  0.4231   58
 Side 2  free  transition at x/c =  0.4569   40

   6   rms: 0.8083E-03   max: 0.1185E-01   C at   40  2
       a =  9.000      CL =  2.2136
      Cm = -0.2708     CD =  0.03253   =>   CDf =  0.00691    CDp =  0.02561

 Side 1  free  transition at x/c =  0.4231   58
 Side 2  free  transition at x/c =  0.4566   40

   7   rms: 0.3765E-05   max: -.5484E-04   D at   42  2
       a =  9.000      CL =  2.2136
      Cm = -0.2708     CD =  0.03253   =>   CDf =  0.00691    CDp =  0.02561

 Point added to stored polar  1
 Point written to save file  000053M0.04.log                                 
 Dump file unspecified or not available
 Calculating wake trajectory ...
 Calculating source influence matrix ...

 Solving BL system ...

 Side 1  free  transition at x/c =  0.4231   58
 Side 2  free  transition at x/c =  0.4566   40

   1   rms: 0.2388E+00   max: -.2572E+01   C at   40  2   RLX: 0.194
       a = 10.000      CL =  2.2202
      Cm = -0.2691     CD =  0.03352   =>   CDf =  0.00693    CDp =  0.02659

 Side 1  free  transition at x/c =  0.4173   57
 Side 2  free  transition at x/c =  0.4805   41

   2   rms: 0.1916E+00   max: -.2323E+01   C at   41  2   RLX: 0.215
       a = 10.000      CL =  2.2221
      Cm = -0.2676     CD =  0.03478   =>   CDf =  0.00687    CDp =  0.02792

 Side 1  free  transition at x/c =  0.4110   57
 Side 2  free  transition at x/c =  0.5062   42

   3   rms: 0.1280E+00   max: -.1179E+01   T at   42  2   RLX: 0.424
       a = 10.000      CL =  2.2274
      Cm = -0.2648     CD =  0.03659   =>   CDf =  0.00680    CDp =  0.02979

 Side 1  free  transition at x/c =  0.4044   56
 Side 2 forced transition at x/c =  1.0001   71

   4   rms: 0.7437E-01   max: 0.5013E+00   D at   42  2
       a = 10.000      CL =  2.2339
      Cm = -0.2611     CD =  0.03871   =>   CDf =  0.00615    CDp =  0.03257

 Side 1  free  transition at x/c =  0.3920   57
 Side 2 forced transition at x/c =  1.0001   70

   5   rms: 0.1408E-01   max: -.7056E-01   C at   57  1
       a = 10.000      CL =  2.2320
      Cm = -0.2608     CD =  0.03873   =>   CDf =  0.00652    CDp =  0.03221

 Side 1  free  transition at x/c =  0.3940   57
 Side 2 forced transition at x/c =  1.0001   70

   6   rms: 0.1989E-02   max: -.1159E-01   D at    4  1
       a = 10.000      CL =  2.2330
      Cm = -0.2609     CD =  0.03867   =>   CDf =  0.00644    CDp =  0.03223

 Side 1  free  transition at x/c =  0.3938   57
 Side 2 forced transition at x/c =  1.0001   70

   7   rms: 0.7500E-04   max: -.4912E-03   D at   82  2
       a = 10.000      CL =  2.2330
      Cm = -0.2609     CD =  0.03867   =>   CDf =  0.00645    CDp =  0.03222

 Point added to stored polar  1
 Point written to save file  000053M0.04.log                                 
 Dump file unspecified or not available
 Calculating wake trajectory ...
 Calculating source influence matrix ...

 Solving BL system ...

 Side 1  free  transition at x/c =  0.3938   57
 Side 2 forced transition at x/c =  1.0001   70

   1   rms: 0.1476E+00   max: -.4534E+00   D at   58  1   RLX: 0.745
       a = 11.000      CL =  2.2463
      Cm = -0.2540     CD =  0.04423   =>   CDf =  0.00647    CDp =  0.03776

 Side 1  free  transition at x/c =  0.3665   55
 Side 2 forced transition at x/c =  1.0001   70

   2   rms: 0.4249E-01   max: 0.2979E+00   D at   56  1
       a = 11.000      CL =  2.2425
      Cm = -0.2516     CD =  0.04738   =>   CDf =  0.00615    CDp =  0.04123

 Side 1  free  transition at x/c =  0.3615   56
 Side 2 forced transition at x/c =  1.0001   69

   3   rms: 0.3744E-02   max: 0.4702E-01   D at   79  1
       a = 11.000      CL =  2.2414
      Cm = -0.2515     CD =  0.04723   =>   CDf =  0.00638    CDp =  0.04085

 Side 1  free  transition at x/c =  0.3616   56
 Side 2 forced transition at x/c =  1.0001   69

   4   rms: 0.1005E-02   max: -.1245E-01   D at    4  1
       a = 11.000      CL =  2.2413
      Cm = -0.2515     CD =  0.04722   =>   CDf =  0.00637    CDp =  0.04084

 Side 1  free  transition at x/c =  0.3616   56
 Side 2 forced transition at x/c =  1.0001   69

   5   rms: 0.3466E-05   max: 0.2220E-04   D at   82  2
       a = 11.000      CL =  2.2413
      Cm = -0.2515     CD =  0.04722   =>   CDf =  0.00637    CDp =  0.04084

 Point added to stored polar  1
 Point written to save file  000053M0.04.log                                 
 Dump file unspecified or not available
 Calculating wake trajectory ...
 Calculating source influence matrix ...

 Solving BL system ...

 Side 1  free  transition at x/c =  0.3616   56
 Side 2 forced transition at x/c =  1.0001   69

   1   rms: 0.1297E+00   max: 0.4279E+00   D at   77  1   RLX: 0.643
       a = 12.000      CL =  2.2510
      Cm = -0.2467     CD =  0.05315   =>   CDf =  0.00640    CDp =  0.04676

 Side 1  free  transition at x/c =  0.3383   55
 Side 2 forced transition at x/c =  1.0001   69

   2   rms: 0.5183E-01   max: -.4869E+00   D at   55  1
       a = 12.000      CL =  2.2412
      Cm = -0.2433     CD =  0.05802   =>   CDf =  0.00646    CDp =  0.05156

 Side 1  free  transition at x/c =  0.3308   54
 Side 2 forced transition at x/c =  1.0001   69

   3   rms: 0.5541E-02   max: -.7267E-01   D at   55  1
       a = 12.000      CL =  2.2404
      Cm = -0.2431     CD =  0.05780   =>   CDf =  0.00627    CDp =  0.05154

 Side 1  free  transition at x/c =  0.3283   54
 Side 2 forced transition at x/c =  1.0001   69

   4   rms: 0.2512E-03   max: -.2085E-02   C at   54  1
       a = 12.000      CL =  2.2405
      Cm = -0.2432     CD =  0.05783   =>   CDf =  0.00629    CDp =  0.05154

 Side 1  free  transition at x/c =  0.3284   54
 Side 2 forced transition at x/c =  1.0001   69

   5   rms: 0.1947E-04   max: -.9928E-04   D at   85  2
       a = 12.000      CL =  2.2405
      Cm = -0.2432     CD =  0.05783   =>   CDf =  0.00629    CDp =  0.05154

 Point added to stored polar  1
 Point written to save file  000053M0.04.log                                 
 Dump file unspecified or not available
 Calculating wake trajectory ...
 Calculating source influence matrix ...

 Solving BL system ...

 Side 1  free  transition at x/c =  0.3284   54
 Side 2 forced transition at x/c =  1.0001   69

   1   rms: 0.1294E+00   max: 0.4970E+00   D at   74  1   RLX: 0.554
       a = 13.000      CL =  2.2411
      Cm = -0.2395     CD =  0.06464   =>   CDf =  0.00584    CDp =  0.05879

 Side 1  free  transition at x/c =  0.3095   54
 Side 2 forced transition at x/c =  1.0001   68

   2   rms: 0.5657E-01   max: 0.2677E+00   D at   76  1
       a = 13.000      CL =  2.2372
      Cm = -0.2364     CD =  0.07027   =>   CDf =  0.00629    CDp =  0.06398

 Side 1  free  transition at x/c =  0.2899   53
 Side 2 forced transition at x/c =  1.0001   68

   3   rms: 0.1467E-01   max: -.1459E+00   C at   53  1
       a = 13.000      CL =  2.2275
      Cm = -0.2359     CD =  0.07096   =>   CDf =  0.00631    CDp =  0.06465

 Side 1  free  transition at x/c =  0.2945   53
 Side 2 forced transition at x/c =  1.0001   68

   4   rms: 0.1751E-02   max: -.1432E-01   D at   75  1
       a = 13.000      CL =  2.2286
      Cm = -0.2358     CD =  0.07067   =>   CDf =  0.00617    CDp =  0.06450

 Side 1  free  transition at x/c =  0.2940   53
 Side 2 forced transition at x/c =  1.0001   68

   5   rms: 0.1336E-03   max: -.7723E-03   D at   83  2
       a = 13.000      CL =  2.2287
      Cm = -0.2359     CD =  0.07069   =>   CDf =  0.00618    CDp =  0.06450

 Side 1  free  transition at x/c =  0.2940   53
 Side 2 forced transition at x/c =  1.0001   68

   6   rms: 0.1106E-04   max: -.8849E-04   D at   85  2
       a = 13.000      CL =  2.2287
      Cm = -0.2359     CD =  0.07069   =>   CDf =  0.00618    CDp =  0.06450

 Point added to stored polar  1
 Point written to save file  000053M0.04.log                                 
 Dump file unspecified or not available
 Calculating wake trajectory ...
 Calculating source influence matrix ...

 Solving BL system ...

 Side 1  free  transition at x/c =  0.2940   53
 Side 2 forced transition at x/c =  1.0001   68

   1   rms: 0.1372E+00   max: 0.6917E+00   C at   53  1   RLX: 0.477
       a = 14.000      CL =  2.2176
      Cm = -0.2330     CD =  0.07876   =>   CDf =  0.00620    CDp =  0.07256

 Side 1  free  transition at x/c =  0.2780   52
 Side 2 forced transition at x/c =  1.0001   68

   2   rms: 0.6695E-01   max: 0.3302E+00   D at   73  1
       a = 14.000      CL =  2.2120
      Cm = -0.2304     CD =  0.08622   =>   CDf =  0.00566    CDp =  0.08056

 Side 1  free  transition at x/c =  0.2572   52
 Side 2 forced transition at x/c =  1.0001   67

   3   rms: 0.1046E-01   max: -.9987E-01   C at   52  1
       a = 14.000      CL =  2.2062
      Cm = -0.2299     CD =  0.08581   =>   CDf =  0.00615    CDp =  0.07966

 Side 1  free  transition at x/c =  0.2597   52
 Side 2 forced transition at x/c =  1.0001   67

   4   rms: 0.1246E-02   max: -.9193E-02   D at   73  1
       a = 14.000      CL =  2.2070
      Cm = -0.2299     CD =  0.08558   =>   CDf =  0.00607    CDp =  0.07951

 Side 1  free  transition at x/c =  0.2595   52
 Side 2 forced transition at x/c =  1.0001   67

   5   rms: 0.8415E-04   max: -.4657E-03   D at   82  2
       a = 14.000      CL =  2.2070
      Cm = -0.2299     CD =  0.08560   =>   CDf =  0.00607    CDp =  0.07952

 Point added to stored polar  1
 Point written to save file  000053M0.04.log                                 
 Dump file unspecified or not available
 Calculating wake trajectory ...
 Calculating source influence matrix ...

 Solving BL system ...

 Side 1  free  transition at x/c =  0.2595   52
 Side 2 forced transition at x/c =  1.0001   67

   1   rms: 0.1384E+00   max: 0.8746E+00   C at   52  1   RLX: 0.419
       a = 15.000      CL =  2.1918
      Cm = -0.2279     CD =  0.09413   =>   CDf =  0.00609    CDp =  0.08804

 Side 1  free  transition at x/c =  0.2413   51
 Side 2 forced transition at x/c =  1.0001   67

   2   rms: 0.7676E-01   max: 0.4081E+00   C at   51  1
       a = 15.000      CL =  2.1750
      Cm = -0.2257     CD =  0.10469   =>   CDf =  0.00611    CDp =  0.09858

 Side 1  free  transition at x/c =  0.2211   49
 Side 2 forced transition at x/c =  1.0001   67

   3   rms: 0.1393E-01   max: 0.1432E+00   D at   70  1
       a = 15.000      CL =  2.1688
      Cm = -0.2255     CD =  0.10370   =>   CDf =  0.00608    CDp =  0.09762

 Side 1  free  transition at x/c =  0.2224   50
 Side 2 forced transition at x/c =  1.0001   67

   4   rms: 0.1422E-02   max: -.1226E-01   D at   70  1
       a = 15.000      CL =  2.1697
      Cm = -0.2254     CD =  0.10319   =>   CDf =  0.00603    CDp =  0.09716

 Side 1  free  transition at x/c =  0.2224   50
 Side 2 forced transition at x/c =  1.0001   67

   5   rms: 0.1030E-03   max: -.5576E-03   D at   86  2
       a = 15.000      CL =  2.1698
      Cm = -0.2254     CD =  0.10321   =>   CDf =  0.00603    CDp =  0.09718

 Side 1  free  transition at x/c =  0.2223   50
 Side 2 forced transition at x/c =  1.0001   67

   6   rms: 0.9908E-05   max: -.8345E-04   D at   86  2
       a = 15.000      CL =  2.1698
      Cm = -0.2254     CD =  0.10321   =>   CDf =  0.00603    CDp =  0.09718

 Point added to stored polar  1
 Point written to save file  000053M0.04.log                                 
 Dump file unspecified or not available

.OPERva   c>  
 XFOIL   c>  
0.1
resp: 
 ===================================================
  XFOIL Version 6.97
  Copyright (C) 2000   Mark Drela, Harold Youngren

  This software comes with ABSOLUTELY NO WARRANTY,
    subject to the GNU General Public License.

  Caveat computor
 ===================================================

 File  xfoil.def  not found

   QUIT    Exit program

  .OPER    Direct operating point(s)
  .MDES    Complex mapping design routine
  .QDES    Surface speed design routine
  .GDES    Geometry design routine

   SAVE f  Write airfoil to labeled coordinate file
   PSAV f  Write airfoil to plain coordinate file
   ISAV f  Write airfoil to ISES coordinate file
   MSAV f  Write airfoil to MSES coordinate file
   REVE    Reverse written-airfoil node ordering
   DELI i  Change written-airfoil file delimiters

   LOAD f  Read buffer airfoil from coordinate file
   NACA i  Set NACA 4,5-digit airfoil and buffer airfoil
   INTE    Set buffer airfoil by interpolating two airfoils
   NORM    Buffer airfoil normalization toggle
   HALF    Halve the number of points in buffer airfoil
   XYCM rr Change CM reference location, currently  0.25000 0.00000

   BEND    Display structural properties of current airfoil

   PCOP    Set current-airfoil panel nodes directly from buffer airfoil points
   PANE    Set current-airfoil panel nodes ( 160 ) based on curvature
  .PPAR    Show/change paneling

  .PLOP    Plotting options

   WDEF f  Write  current-settings file
   RDEF f  Reread current-settings file
   NAME s  Specify new airfoil name
   NINC    Increment name version number

   Z       Zoom    | (available in all menus)
   U       Unzoom  | 

 XFOIL   c>   ...............................................

  G raphics-enable flag:        T
  S ize of plot object          10.00"
  A spect ratio of plot object   0.5500
  P age dimensions              11.00 x  8.50"
  M argins from page edges       0.00",  0.00"
  F ont size (relative)          0.0150
  W indow/screen size fraction   0.8000
  B lowup input method:        Cursor    
  O rientation of plot:        Landscape 
  C olor PostScript output?     F

      Option, Value   (or <Return>)    c>   ...............................................

  G raphics-enable flag:        F
  S ize of plot object          10.00"
  A spect ratio of plot object   0.5500
  P age dimensions              11.00 x  8.50"
  M argins from page edges       0.00",  0.00"
  F ont size (relative)          0.0150
  W indow/screen size fraction   0.8000
  B lowup input method:        Cursor    
  O rientation of plot:        Landscape 
  C olor PostScript output?     F

      Option, Value   (or <Return>)    c>  
 XFOIL   c>  
 Labeled airfoil file.  Name:  000053                                          

 Number of input coordinate points: 200
 Clockwise ordering
 Max thickness =     0.122927  at x =   0.147
 Max camber    =     0.136613  at x =   0.453

  LE  x,y  =  -0.00005   0.00162  |   Chord =   0.99993
  TE  x,y  =   0.99988   0.00006  |

 Current airfoil nodes set from buffer airfoil nodes ( 200 )

 XFOIL   c>  
 You are working with the buffer airfoil

.GDES   c>  
  i       x        y      angle
   2   0.9990   0.0005    0.038
   3   0.9978   0.0011    0.042
   4   0.9961   0.0020    0.055
   5   0.9938   0.0031    0.052
   6   0.9911   0.0044    0.087
   7   0.9880   0.0060    0.078
   8   0.9843   0.0078    0.120
   9   0.9801   0.0098    0.102
  10   0.9755   0.0121    0.134
  11   0.9704   0.0145    0.141
  12   0.9649   0.0172    0.148
  13   0.9589   0.0201    0.168
  14   0.9524   0.0232    0.188
  15   0.9455   0.0264    0.190
  16   0.9382   0.0298    0.204
  17   0.9304   0.0334    0.228
  18   0.9222   0.0372    0.230
  19   0.9135   0.0411    0.252
  20   0.9045   0.0451    0.259
  21   0.8951   0.0493    0.278
  22   0.8853   0.0536    0.292
  23   0.8751   0.0580    0.310
  24   0.8645   0.0625    0.321
  25   0.8536   0.0670    0.335
  26   0.8423   0.0717    0.356
  27   0.8307   0.0763    0.370
  28   0.8187   0.0811    0.386
  29   0.8065   0.0858    0.404
  30   0.7939   0.0906    0.423
  31   0.7810   0.0954    0.436
  32   0.7679   0.1001    0.457
  33   0.7545   0.1049    0.476
  34   0.7409   0.1096    0.496
  35   0.7270   0.1142    0.512
  36   0.7129   0.1188    0.536
  37   0.6986   0.1233    0.557
  38   0.6841   0.1277    0.569
  39   0.6694   0.1320    0.599
  40   0.6545   0.1362    0.619
  41   0.6395   0.1403    0.638
  42   0.6243   0.1442    0.665
  43   0.6091   0.1479    0.685
  44   0.5937   0.1515    0.707
  45   0.5782   0.1549    0.732
  46   0.5627   0.1581    0.755
  47   0.5471   0.1612    0.781
  48   0.5314   0.1640    0.804
  49   0.5157   0.1665    0.824
  50   0.5000   0.1689    0.851
  51   0.4843   0.1710    0.877
  52   0.4686   0.1729    0.897
  53   0.4529   0.1745    0.921
  54   0.4373   0.1759    0.947
  55   0.4218   0.1770    0.972
  56   0.4063   0.1778    0.989
  57   0.3909   0.1784    1.016
  58   0.3757   0.1786    1.043
  59   0.3605   0.1786    1.057
  60   0.3455   0.1784    1.082
  61   0.3306   0.1778    1.110
  62   0.3159   0.1770    1.125
  63   0.3014   0.1759    1.148
  64   0.2871   0.1745    1.174
  65   0.2730   0.1728    1.194
  66   0.2591   0.1709    1.216
  67   0.2455   0.1687    1.240
  68   0.2321   0.1663    1.266
  69   0.2190   0.1636    1.290
  70   0.2061   0.1607    1.321
  71   0.1935   0.1575    1.343
  72   0.1813   0.1541    1.381
  73   0.1693   0.1504    1.407
  74   0.1577   0.1466    1.449
  75   0.1464   0.1425    1.486
  76   0.1355   0.1383    1.531
  77   0.1249   0.1338    1.585
  78   0.1147   0.1292    1.639
  79   0.1049   0.1244    1.696
  80   0.0955   0.1195    1.766
  81   0.0865   0.1143    1.842
  82   0.0778   0.1091    1.924
  83   0.0696   0.1037    2.024
  84   0.0618   0.0982    2.127
  85   0.0545   0.0926    2.236
  86   0.0476   0.0869    2.375
  87   0.0411   0.0810    2.501
  88   0.0351   0.0751    2.663
  89   0.0296   0.0691    2.824
  90   0.0245   0.0631    2.991
  91   0.0199   0.0569    3.183
  92   0.0157   0.0508    3.374
  93   0.0120   0.0445    3.550
  94   0.0089   0.0382    3.757
  95   0.0062   0.0319    3.920
  96   0.0039   0.0256    4.082
  97   0.0022   0.0192    4.224
  98   0.0010   0.0128    4.319
  99   0.0002   0.0064    4.386
 100   0.0000   0.0000   10.762
 101   0.0002  -0.0016   16.130
 102   0.0010  -0.0033   13.903
 103   0.0022  -0.0048   11.386
 104   0.0039  -0.0062    9.231
 105   0.0062  -0.0076    7.492
 106   0.0089  -0.0087    6.239
 107   0.0120  -0.0097    5.218
 108   0.0157  -0.0105    4.492
 109   0.0199  -0.0110    3.873
 110   0.0245  -0.0113    3.369
 111   0.0296  -0.0113    2.969
 112   0.0351  -0.0110    2.617
 113   0.0411  -0.0104    2.306
 114   0.0476  -0.0096    2.030
 115   0.0545  -0.0084    1.807
 116   0.0618  -0.0069    1.574
 117   0.0696  -0.0050    1.378
 118   0.0778  -0.0029    1.198
 119   0.0865  -0.0005    1.022
 120   0.0955   0.0023    0.875
 121   0.1049   0.0053    0.715
 122   0.1147   0.0085    0.589
 123   0.1249   0.0120    0.442
 124   0.1355   0.0158    0.333
 125   0.1464   0.0197    0.207
 126   0.1577   0.0238    0.100
 127   0.1693   0.0280   -0.013
 128   0.1813   0.0324   -0.105
 129   0.1935   0.0368   -0.209
 130   0.2061   0.0413   -0.301
 131   0.2190   0.0458   -0.385
 132   0.2321   0.0504   -0.467
 133   0.2455   0.0549   -0.548
 134   0.2591   0.0593   -0.627
 135   0.2730   0.0637   -0.686
 136   0.2871   0.0679   -0.761
 137   0.3014   0.0720   -0.821
 138   0.3159   0.0759   -0.868
 139   0.3306   0.0796   -0.926
 140   0.3455   0.0832   -0.968
 141   0.3605   0.0865   -1.009
 142   0.3757   0.0895   -1.037
 143   0.3909   0.0923   -1.073
 144   0.4063   0.0948   -1.089
 145   0.4218   0.0970   -1.107
 146   0.4373   0.0989   -1.119
 147   0.4529   0.1006   -1.123
 148   0.4686   0.1019   -1.124
 149   0.4843   0.1029   -1.117
 150   0.5000   0.1036   -1.111
 151   0.5157   0.1040   -1.094
 152   0.5314   0.1041   -1.075
 153   0.5471   0.1039   -1.058
 154   0.5627   0.1034   -1.030
 155   0.5782   0.1026   -0.999
 156   0.5937   0.1016   -0.971
 157   0.6091   0.1003   -0.945
 158   0.6243   0.0988   -0.902
 159   0.6395   0.0970   -0.876
 160   0.6545   0.0951   -0.835
 161   0.6694   0.0929   -0.802
 162   0.6841   0.0905   -0.761
 163   0.6986   0.0880   -0.733
 164   0.7129   0.0853   -0.695
 165   0.7270   0.0825   -0.660
 166   0.7409   0.0795   -0.627
 167   0.7545   0.0765   -0.591
 168   0.7679   0.0733   -0.564
 169   0.7810   0.0701   -0.529
 170   0.7939   0.0669   -0.499
 171   0.8065   0.0635   -0.475
 172   0.8187   0.0602   -0.444
 173   0.8307   0.0568   -0.423
 174   0.8423   0.0535   -0.393
 175   0.8536   0.0501   -0.371
 176   0.8645   0.0468   -0.347
 177   0.8751   0.0435   -0.328
 178   0.8853   0.0403   -0.309
 179   0.8951   0.0371   -0.292
 180   0.9045   0.0340   -0.267
 181   0.9135   0.0310   -0.251
 182   0.9222   0.0281   -0.232
 183   0.9304   0.0253   -0.228
 184   0.9382   0.0226   -0.202
 185   0.9455   0.0200   -0.186
 186   0.9524   0.0175   -0.181
 187   0.9589   0.0152   -0.161
 188   0.9649   0.0131   -0.146
 189   0.9704   0.0110   -0.131
 190   0.9755   0.0092   -0.122
 191   0.9801   0.0075   -0.112
 192   0.9843   0.0059   -0.110
 193   0.9880   0.0045   -0.056
 194   0.9911   0.0034   -0.098
 195   0.9938   0.0023   -0.059
 196   0.9961   0.0015   -0.028
 197   0.9978   0.0008   -0.055
 198   0.9990   0.0004    0.006
 199   0.9998   0.0001   -0.042

 Maximum panel corner angle = 16.130   at  i,x,y  = 101   0.0002  -0.0016

 Enter corner angle criterion for refinement (deg):   8.065
 Enter type of spline parameter (1=uniform, 2=arclength):   1
 Enter refinement x limits:  -0.10000   1.10000
 Number of points added:           10
 Max thickness =     0.122844  at x =   0.146
 Max camber    =     0.137604  at x =   0.453

 Maximum panel corner angle = 15.422   at  i,x,y  = 103   0.0001  -0.0014

.GDES   c>  
 Buffer airfoil is not identical to current airfoil

 XFOIL   c>  
 Blunt trailing edge.  Gap =  0.00028

 Paneling parameters used...
   Number of panel nodes       160
   Panel bunching parameter    1.000
   TE/LE panel density ratio   0.150
   Refined-area/LE panel density ratio    0.200
   Top    side refined area x/c limits  1.000 1.000
   Bottom side refined area x/c limits  1.000 1.000

 XFOIL   c>  
.OPERi   c>   Current iteration limit:          20

Enter new iteration limit   i>  
Enter new iteration limit   i>  
Enter new iteration limit   i>  
.OPERi   c>  
 M  =    0.0000
 Re =  0.3000E+06

.OPERv   c>  
 Sonic Cp =    -66.86      Sonic Q/Qinf =     9.138


.OPERv   c>  
 Polar  1 newly created for accumulation
 Airfoil archived with polar: 000053                                          

Enter  polar save filename  OR  <return> for no file   s>  
 New polar save file available

Enter  polar dump filename  OR  <return> for no file   s>  
 Polar dump file will NOT be written

 Polar accumulation enabled

.OPERva   c>   Calculating unit vorticity distributions ...
 Calculating wake trajectory ...
 Calculating source influence matrix ...

 Solving BL system ...

 Initializing BL ...
    side            1  ...
 MRCHUE: Inverse mode at  52     Hk =   4.376
 MRCHUE: Inverse mode at  53     Hk =   5.136
 MRCHUE: Inverse mode at  54     Hk =   5.880
 MRCHUE: Inverse mode at  55     Hk =   6.613
 MRCHUE: Inverse mode at  56     Hk =   7.338
 MRCHUE: Inverse mode at  57     Hk =   8.057
 MRCHUE: Inverse mode at  58     Hk =   8.771
 MRCHUE: Inverse mode at  59     Hk =   6.419
 MRCHUE: Inverse mode at  60     Hk =   4.126
 MRCHUE: Inverse mode at  61     Hk =   2.652
 MRCHUE: Inverse mode at  85     Hk =   2.500
    side            2  ...
 MRCHUE: Inverse mode at  23     Hk =   3.991
 MRCHUE: Inverse mode at  24     Hk =   4.790
 MRCHUE: Inverse mode at  25     Hk =   5.616
 MRCHUE: Inverse mode at  26     Hk =   6.473
 MRCHUE: Inverse mode at  27     Hk =   7.359
 MRCHUE: Inverse mode at  28     Hk =   8.262
 MRCHUE: Inverse mode at  29     Hk =   9.167
 MRCHUE: Inverse mode at  30     Hk =   9.579
 MRCHUE: Inverse mode at  31     Hk =   5.540
 MRCHUE: Inverse mode at  32     Hk =   3.793
 MRCHUE: Inverse mode at  33     Hk =   2.636
 MRCHUE: Inverse mode at  34     Hk =   2.500

 Side 1  free  transition at x/c =  0.5503   59
 Side 2  free  transition at x/c =  0.1972   30

   1   rms: 0.1993E+01   max: 0.1416E+02   T at   30  2   RLX: 0.055
       a =  2.000      CL =  1.8706
      Cm = -0.3424     CD =  0.01648   =>   CDf =  0.00776    CDp =  0.00873

 Side 1  free  transition at x/c =  0.5514   59
 Side 2  free  transition at x/c =  0.1828   30

   2   rms: 0.3772E+00   max: -.1370E+01   D at   40  2   RLX: 0.365
       a =  2.000      CL =  1.8186
      Cm = -0.3317     CD =  0.01720   =>   CDf =  0.00762    CDp =  0.00959

 Side 1  free  transition at x/c =  0.5593   58
 Side 2  free  transition at x/c =  0.1827   31

   3   rms: 0.8772E+00   max: 0.1467E+02   T at    2  2   RLX: 0.074
       a =  2.000      CL =  1.8114
      Cm = -0.3301     CD =  0.01789   =>   CDf =  0.00756    CDp =  0.01032

 Side 1  free  transition at x/c =  0.5606   58
 Side 2  free  transition at x/c =  0.1824   31

   4   rms: 0.2200E+00   max: -.9207E+00   D at   39  2   RLX: 0.543
       a =  2.000      CL =  1.7778
      Cm = -0.3229     CD =  0.01794   =>   CDf =  0.00761    CDp =  0.01033

 MRCHDU: Convergence failed at  59  side 1    Res =  0.4709E+01
 MRCHDU: Convergence failed at  60  side 1    Res =  0.6600E+01
 MRCHDU: Convergence failed at  61  side 1    Res =  0.2565E+01
 MRCHDU: Convergence failed at  62  side 1    Res =  0.5043E+01
 MRCHDU: Convergence failed at  63  side 1    Res =  0.9287E+01
 MRCHDU: Convergence failed at  64  side 1    Res =  0.1661E+02
 MRCHDU: Convergence failed at  65  side 1    Res =  0.2509E+02
 MRCHDU: Convergence failed at  66  side 1    Res =  0.3113E+02
 MRCHDU: Convergence failed at  67  side 1    Res =  0.3034E+02
 MRCHDU: Convergence failed at  68  side 1    Res =  0.2720E+02
 MRCHDU: Convergence failed at  69  side 1    Res =  0.2271E+02
 MRCHDU: Convergence failed at  70  side 1    Res =  0.1901E+02
 MRCHDU: Convergence failed at  71  side 1    Res =  0.1609E+02
 MRCHDU: Convergence failed at  72  side 1    Res =  0.1392E+02
 MRCHDU: Convergence failed at  73  side 1    Res =  0.1225E+02
 MRCHDU: Convergence failed at  74  side 1    Res =  0.9147E+01
 MRCHDU: Convergence failed at  75  side 1    Res =  0.1140E+02
 MRCHDU: Convergence failed at  76  side 1    Res =  0.1464E+02
 MRCHDU: Convergence failed at  77  side 1    Res =  0.1998E+02
 MRCHDU: Convergence failed at  78  side 1    Res =  0.3165E+02
 MRCHDU: Convergence failed at  79  side 1    Res =  0.7886E+02
 MRCHDU: Convergence failed at  80  side 1    Res =  0.1498E+03
 MRCHDU: Convergence failed at  81  side 1    Res =  0.3874E+02
 MRCHDU: Convergence failed at  82  side 1    Res =  0.2118E+02
 MRCHDU: Convergence failed at  83  side 1    Res =  0.2020E+02
 MRCHDU: Convergence failed at  84  side 1    Res =  0.2383E+02
 Side 1  free  transition at x/c =  0.5740   59
 Side 2  free  transition at x/c =  0.1799   30

   5   rms: 0.7108E+00   max: 0.2953E+01   D at   80  2   RLX: 0.476
       a =  2.000      CL =  1.9362
      Cm = -0.4371     CD =  0.00760   =>   CDf =  0.00532    CDp =  0.00228

 Side 1  free  transition at x/c =  0.5646   59
 Side 2  free  transition at x/c =  0.1683   30

   6   rms: 0.2113E+00   max: -.5575E+00   D at   32  2   RLX: 0.651
       a =  2.000      CL =  1.7537
      Cm = -0.3368     CD =  0.01790   =>   CDf =  0.00746    CDp =  0.01044

 Side 1  free  transition at x/c =  0.5766   59
 Side 2  free  transition at x/c =  0.1660   30

   7   rms: 0.1033E+00   max: 0.5831E+00   D at   84  1
       a =  2.000      CL =  1.7610
      Cm = -0.3188     CD =  0.01702   =>   CDf =  0.00793    CDp =  0.00909

 Side 1  free  transition at x/c =  0.5840   60
 Side 2  free  transition at x/c =  0.1686   30

   8   rms: 0.3815E-01   max: 0.1607E+00   T at   30  2
       a =  2.000      CL =  1.7262
      Cm = -0.3119     CD =  0.01775   =>   CDf =  0.00728    CDp =  0.01048

 Side 1  free  transition at x/c =  0.5820   60
 Side 2  free  transition at x/c =  0.1656   30

   9   rms: 0.7051E-02   max: -.4149E-01   D at   30  2
       a =  2.000      CL =  1.7241
      Cm = -0.3115     CD =  0.01780   =>   CDf =  0.00732    CDp =  0.01048

 Side 1  free  transition at x/c =  0.5818   60
 Side 2  free  transition at x/c =  0.1655   30

  10   rms: 0.1819E-03   max: 0.1407E-02   T at   30  2
       a =  2.000      CL =  1.7241
      Cm = -0.3115     CD =  0.01780   =>   CDf =  0.00733    CDp =  0.01047

 Side 1  free  transition at x/c =  0.5818   60
 Side 2  free  transition at x/c =  0.1654   30

  11   rms: 0.1384E-05   max: 0.8523E-05   D at   60  1
       a =  2.000      CL =  1.7241
      Cm = -0.3115     CD =  0.01780   =>   CDf =  0.00733    CDp =  0.01047

 Point added to stored polar  1
 Point written to save file  000053M0.1.log                                  
 Dump file unspecified or not available
 Calculating wake trajectory ...
 Calculating source influence matrix ...

 Solving BL system ...

 Side 1  free  transition at x/c =  0.5818   60
 Side 2  free  transition at x/c =  0.1654   30

   1   rms: 0.1913E+00   max: -.1684E+01   T at   30  2   RLX: 0.297
       a =  3.000      CL =  1.7591
      Cm = -0.3120     CD =  0.01798   =>   CDf =  0.00735    CDp =  0.01063

 Side 1  free  transition at x/c =  0.5768   59
 Side 2  free  transition at x/c =  0.1735   30

   2   rms: 0.1477E+00   max: -.1007E+01   T at   30  2   RLX: 0.497
       a =  3.000      CL =  1.7889
      Cm = -0.3106     CD =  0.01851   =>   CDf =  0.00699    CDp =  0.01152

 Side 1  free  transition at x/c =  0.5670   60
 Side 2  free  transition at x/c =  0.1838   30

   3   rms: 0.7276E-01   max: -.6186E+00   T at    2  1   RLX: 0.808
       a =  3.000      CL =  1.8190
      Cm = -0.3101     CD =  0.01853   =>   CDf =  0.00740    CDp =  0.01113

 Side 1  free  transition at x/c =  0.5622   59
 Side 2  free  transition at x/c =  0.1907   30

   4   rms: 0.2978E-01   max: -.1383E+00   D at   30  2
       a =  3.000      CL =  1.8264
      Cm = -0.3101     CD =  0.01861   =>   CDf =  0.00742    CDp =  0.01119

 Side 1  free  transition at x/c =  0.5608   59
 Side 2  free  transition at x/c =  0.1933   30

   5   rms: 0.1420E-02   max: -.7757E-02   D at   30  2
       a =  3.000      CL =  1.8266
      Cm = -0.3101     CD =  0.01861   =>   CDf =  0.00742    CDp =  0.01119

 Side 1  free  transition at x/c =  0.5608   59
 Side 2  free  transition at x/c =  0.1933   30

   6   rms: 0.2786E-05   max: 0.1754E-04   D at   32  2
       a =  3.000      CL =  1.8266
      Cm = -0.3101     CD =  0.01861   =>   CDf =  0.00742    CDp =  0.01119

 Point added to stored polar  1
 Point written to save file  000053M0.1.log                                  
 Dump file unspecified or not available
 Calculating wake trajectory ...
 Calculating source influence matrix ...

 Solving BL system ...

 Side 1  free  transition at x/c =  0.5608   59
 Side 2  free  transition at x/c =  0.1933   30

   1   rms: 0.1642E+00   max: -.1286E+01   T at   30  2   RLX: 0.389
       a =  4.000      CL =  1.8604
      Cm = -0.3086     CD =  0.01900   =>   CDf =  0.00743    CDp =  0.01156

 Side 1  free  transition at x/c =  0.5509   59
 Side 2  free  transition at x/c =  0.2068   31

   2   rms: 0.1094E+00   max: 0.7246E+00   D at   31  2   RLX: 0.919
       a =  4.000      CL =  1.9170
      Cm = -0.3077     CD =  0.01957   =>   CDf =  0.00720    CDp =  0.01237

 Side 1  free  transition at x/c =  0.5409   59
 Side 2  free  transition at x/c =  0.2190   31

   3   rms: 0.2307E-01   max: -.1948E+00   T at   31  2
       a =  4.000      CL =  1.9208
      Cm = -0.3074     CD =  0.01960   =>   CDf =  0.00750    CDp =  0.01210

 Side 1  free  transition at x/c =  0.5392   59
 Side 2  free  transition at x/c =  0.2224   31

   4   rms: 0.6604E-02   max: -.4256E-01   D at   31  2
       a =  4.000      CL =  1.9214
      Cm = -0.3075     CD =  0.01961   =>   CDf =  0.00741    CDp =  0.01220

 Side 1  free  transition at x/c =  0.5392   59
 Side 2  free  transition at x/c =  0.2226   31

   5   rms: 0.3651E-04   max: 0.4183E-03   D at   32  2
       a =  4.000      CL =  1.9215
      Cm = -0.3075     CD =  0.01961   =>   CDf =  0.00742    CDp =  0.01219

 Point added to stored polar  1
 Point written to save file  000053M0.1.log                                  
 Dump file unspecified or not available
 Calculating wake trajectory ...
 Calculating source influence matrix ...

 Solving BL system ...

 Side 1  free  transition at x/c =  0.5392   59
 Side 2  free  transition at x/c =  0.2226   31

   1   rms: 0.1521E+00   max: -.1178E+01   T at   31  2   RLX: 0.425
       a =  5.000      CL =  1.9565
      Cm = -0.3056     CD =  0.02015   =>   CDf =  0.00744    CDp =  0.01272

 Side 1  free  transition at x/c =  0.5288   59
 Side 2  free  transition at x/c =  0.2336   31

   2   rms: 0.1425E+00   max: -.1642E+01   T at   31  2   RLX: 0.304
       a =  5.000      CL =  1.9747
      Cm = -0.3049     CD =  0.02131   =>   CDf =  0.00723    CDp =  0.01408

 MRCHDU: Convergence failed at  31  side 2    Res =  0.5010E+01
 MRCHDU: Convergence failed at  32  side 2    Res =  0.8536E+01
 MRCHDU: Convergence failed at  33  side 2    Res =  0.1462E+02
 MRCHDU: Convergence failed at  34  side 2    Res =  0.7358E+01
 MRCHDU: Convergence failed at  35  side 2    Res =  0.9958E+01
 MRCHDU: Convergence failed at  36  side 2    Res =  0.1300E+02
 MRCHDU: Convergence failed at  37  side 2    Res =  0.1639E+02
 MRCHDU: Convergence failed at  38  side 2    Res =  0.1977E+02
 MRCHDU: Convergence failed at  39  side 2    Res =  0.2338E+02
 MRCHDU: Convergence failed at  40  side 2    Res =  0.2691E+02
 MRCHDU: Convergence failed at  41  side 2    Res =  0.3022E+02
 MRCHDU: Convergence failed at  42  side 2    Res =  0.3306E+02
 MRCHDU: Convergence failed at  43  side 2    Res =  0.3448E+02
 MRCHDU: Convergence failed at  44  side 2    Res =  0.3675E+02
 MRCHDU: Convergence failed at  45  side 2    Res =  0.3854E+02
 MRCHDU: Convergence failed at  46  side 2    Res =  0.4086E+02
 MRCHDU: Convergence failed at  47  side 2    Res =  0.4337E+02
 MRCHDU: Convergence failed at  48  side 2    Res =  0.4598E+02
 MRCHDU: Convergence failed at  49  side 2    Res =  0.4874E+02
 MRCHDU: Convergence failed at  50  side 2    Res =  0.5162E+02
 MRCHDU: Convergence failed at  51  side 2    Res =  0.6054E+02
 MRCHDU: Convergence failed at  52  side 2    Res =  0.6471E+02
 MRCHDU: Convergence failed at  53  side 2    Res =  0.6727E+02
 MRCHDU: Convergence failed at  54  side 2    Res =  0.6651E+02
 MRCHDU: Convergence failed at  55  side 2    Res =  0.6130E+02
 MRCHDU: Convergence failed at  56  side 2    Res =  0.5189E+02
 MRCHDU: Convergence failed at  57  side 2    Res =  0.4033E+02
 MRCHDU: Convergence failed at  58  side 2    Res =  0.2936E+02
 MRCHDU: Convergence failed at  59  side 2    Res =  0.2000E+02
 MRCHDU: Convergence failed at  60  side 2    Res =  0.1334E+02
 MRCHDU: Convergence failed at  61  side 2    Res =  0.8865E+01
 MRCHDU: Convergence failed at  62  side 2    Res =  0.5635E+01
 MRCHDU: Convergence failed at  63  side 2    Res =  0.3554E+01
 MRCHDU: Convergence failed at  64  side 2    Res =  0.3801E+01
 Side 1  free  transition at x/c =  0.5262   59
 Side 2  free  transition at x/c =  0.2443   31

   3   rms: 0.3603E+00   max: 0.1532E+01   C at   31  2   RLX: 0.380
       a =  5.000      CL =  1.9349
      Cm = -0.2908     CD =  0.02018   =>   CDf =  0.00644    CDp =  0.01374

 Side 1  free  transition at x/c =  0.5227   59
 Side 2  free  transition at x/c =  0.2419   31

   4   rms: 0.1669E+00   max: -.8711E+00   D at   43  2   RLX: 0.574
       a =  5.000      CL =  1.9836
      Cm = -0.2992     CD =  0.02162   =>   CDf =  0.00739    CDp =  0.01423

 Side 1  free  transition at x/c =  0.5196   59
 Side 2  free  transition at x/c =  0.2505   31

   5   rms: 0.4296E+00   max: -.3459E+01   T at   31  2   RLX: 0.145
       a =  5.000      CL =  1.9904
      Cm = -0.3003     CD =  0.02166   =>   CDf =  0.00731    CDp =  0.01435

 MRCHDU: Convergence failed at  33  side 2    Res =  0.2886E+01
 MRCHDU: Convergence failed at  34  side 2    Res =  0.2140E+02
 MRCHDU: Convergence failed at  35  side 2    Res =  0.3007E+02
 MRCHDU: Convergence failed at  36  side 2    Res =  0.1705E+02
 MRCHDU: Convergence failed at  37  side 2    Res =  0.3595E+01
 Side 1  free  transition at x/c =  0.5193   59
 Side 2  free  transition at x/c =  0.2657   32

   6   rms: 0.5102E+01   max: 0.4104E+02   D at   38  2   RLX: 0.037
       a =  5.000      CL =  1.9691
      Cm = -0.2972     CD =  0.02136   =>   CDf =  0.00734    CDp =  0.01402

 Side 1  free  transition at x/c =  0.5193   59
 Side 2  free  transition at x/c =  0.2514   32

   7   rms: 0.9155E-01   max: -.8232E+00   D at   37  2   RLX: 0.607
       a =  5.000      CL =  1.9932
      Cm = -0.3007     CD =  0.02151   =>   CDf =  0.00739    CDp =  0.01412

 Side 1  free  transition at x/c =  0.5182   59
 Side 2  free  transition at x/c =  0.2519   32

   8   rms: 0.8966E-01   max: -.7954E+00   D at   37  2   RLX: 0.629
       a =  5.000      CL =  2.0016
      Cm = -0.3023     CD =  0.02118   =>   CDf =  0.00739    CDp =  0.01378

 Side 1  free  transition at x/c =  0.5178   59
 Side 2  free  transition at x/c =  0.2544   32

   9   rms: 0.6972E-01   max: -.6500E+00   D at   37  2   RLX: 0.769
       a =  5.000      CL =  2.0062
      Cm = -0.3032     CD =  0.02095   =>   CDf =  0.00734    CDp =  0.01360

 Side 1  free  transition at x/c =  0.5176   59
 Side 2  free  transition at x/c =  0.2568   32

  10   rms: 0.2409E-01   max: -.3599E+00   D at   37  2
       a =  5.000      CL =  2.0072
      Cm = -0.3035     CD =  0.02092   =>   CDf =  0.00737    CDp =  0.01355

 Side 1  free  transition at x/c =  0.5175   59
 Side 2  free  transition at x/c =  0.2556   32

  11   rms: 0.4762E-02   max: -.8262E-01   D at   37  2
       a =  5.000      CL =  2.0071
      Cm = -0.3034     CD =  0.02093   =>   CDf =  0.00739    CDp =  0.01354

 Side 1  free  transition at x/c =  0.5175   59
 Side 2  free  transition at x/c =  0.2551   32

  12   rms: 0.2066E-03   max: -.4124E-02   D at   37  2
       a =  5.000      CL =  2.0071
[...]

 Point added to stored polar  1
 Point written to save file  000053M0.1.log                                  
 Dump file unspecified or not available
 Calculating wake trajectory ...
 Calculating source influence matrix ...

 Solving BL system ...

 Side 1  free  transition at x/c =  0.4960   59
 Side 2  free  transition at x/c =  0.2892   33

   1   rms: 0.1641E+00   max: -.1368E+01   T at   33  2   RLX: 0.366
       a =  7.000      CL =  2.1049
      Cm = -0.2948     CD =  0.02336   =>   CDf =  0.00736    CDp =  0.01600

 Side 1  free  transition at x/c =  0.4892   58
 Side 2  free  transition at x/c =  0.3013   33

   2   rms: 0.1081E+00   max: -.1046E+01   T at   33  2   RLX: 0.478
       a =  7.000      CL =  2.1115
      Cm = -0.2903     CD =  0.02467   =>   CDf =  0.00705    CDp =  0.01762

 MRCHDU: Convergence failed at  34  side 2    Res =  0.1106E+02
 MRCHDU: Convergence failed at  35  side 2    Res =  0.1502E+02
 MRCHDU: Convergence failed at  36  side 2    Res =  0.1217E+02
 MRCHDU: Convergence failed at  37  side 2    Res =  0.1022E+02
 MRCHDU: Convergence failed at  38  side 2    Res =  0.1096E+02
 MRCHDU: Convergence failed at  39  side 2    Res =  0.1226E+02
 MRCHDU: Convergence failed at  40  side 2    Res =  0.4471E+01
 MRCHDU: Convergence failed at  41  side 2    Res =  0.4790E+01
 MRCHDU: Convergence failed at  42  side 2    Res =  0.4936E+01
 MRCHDU: Convergence failed at  43  side 2    Res =  0.4942E+01
 MRCHDU: Convergence failed at  44  side 2    Res =  0.4805E+01
 MRCHDU: Convergence failed at  45  side 2    Res =  0.4541E+01
 MRCHDU: Convergence failed at  46  side 2    Res =  0.4237E+01
 MRCHDU: Convergence failed at  47  side 2    Res =  0.1284E+02
 MRCHDU: Convergence failed at  48  side 2    Res =  0.1184E+02
 MRCHDU: Convergence failed at  49  side 2    Res =  0.1091E+02
 MRCHDU: Convergence failed at  50  side 2    Res =  0.1062E+02
 MRCHDU: Convergence failed at  51  side 2    Res =  0.1089E+02
 MRCHDU: Convergence failed at  52  side 2    Res =  0.1146E+02
 MRCHDU: Convergence failed at  53  side 2    Res =  0.1479E+02
 MRCHDU: Convergence failed at  54  side 2    Res =  0.4516E+02
 Side 1  free  transition at x/c =  0.4810   59
 Side 2  free  transition at x/c =  0.3168   33

   3   rms: 0.1314E+00   max: -.7204E+00   D at   54  2   RLX: 0.694
       a =  7.000      CL =  2.1203
      Cm = -0.2874     CD =  0.02492   =>   CDf =  0.00677    CDp =  0.01815

 Side 1  free  transition at x/c =  0.4759   59
 Side 2  free  transition at x/c =  0.3053   33

   4   rms: 0.1533E+00   max: -.9366E+00   D at   44  2   RLX: 0.534
       a =  7.000      CL =  2.1354
      Cm = -0.2891     CD =  0.02562   =>   CDf =  0.00715    CDp =  0.01846

 Side 1  free  transition at x/c =  0.4751   59
 Side 2  free  transition at x/c =  0.3144   33

   5   rms: 0.2070E+00   max: -.1297E+01   D at   44  2   RLX: 0.386
       a =  7.000      CL =  2.1395
      Cm = -0.2896     CD =  0.02548   =>   CDf =  0.00711    CDp =  0.01837

 Side 1  free  transition at x/c =  0.4748   59
 Side 2  free  transition at x/c =  0.3305   34

   6   rms: 0.1355E+00   max: -.1346E+01   D at   43  2   RLX: 0.371
       a =  7.000      CL =  2.1416
      Cm = -0.2898     CD =  0.02508   =>   CDf =  0.00723    CDp =  0.01785

 Side 1  free  transition at x/c =  0.4746   59
 Side 2  free  transition at x/c =  0.3337   34

   7   rms: 0.1001E+00   max: -.1030E+01   D at   43  2   RLX: 0.485
       a =  7.000      CL =  2.1434
      Cm = -0.2901     CD =  0.02503   =>   CDf =  0.00725    CDp =  0.01777

 Side 1  free  transition at x/c =  0.4744   59
 Side 2  free  transition at x/c =  0.3342   34

   8   rms: 0.6241E-01   max: -.6224E+00   D at   42  2   RLX: 0.803
       a =  7.000      CL =  2.1442
      Cm = -0.2901     CD =  0.02500   =>   CDf =  0.00727    CDp =  0.01772

 Side 1  free  transition at x/c =  0.4743   59
 Side 2  free  transition at x/c =  0.3314   34

   9   rms: 0.1833E-01   max: -.1870E+00   D at   42  2
       a =  7.000      CL =  2.1439
      Cm = -0.2900     CD =  0.02501   =>   CDf =  0.00730    CDp =  0.01771

 Side 1  free  transition at x/c =  0.4743   59
 Side 2  free  transition at x/c =  0.3294   34

  10   rms: 0.6037E-03   max: -.1015E-01   D at   42  2
       a =  7.000      CL =  2.1439
      Cm = -0.2900     CD =  0.02501   =>   CDf =  0.00731    CDp =  0.01770

 Side 1  free  transition at x/c =  0.4743   59
 Side 2  free  transition at x/c =  0.3294   34

  11   rms: 0.2630E-05   max: -.3179E-04   D at   42  2
       a =  7.000      CL =  2.1439
      Cm = -0.2900     CD =  0.02501   =>   CDf =  0.00731    CDp =  0.01770

 Point added to stored polar  1
 Point written to save file  000053M0.1.log                                  
 Dump file unspecified or not available
 Calculating wake trajectory ...
 Calculating source influence matrix ...

 Solving BL system ...

 Side 1  free  transition at x/c =  0.4743   59
 Side 2  free  transition at x/c =  0.3294   34

   1   rms: 0.1833E+00   max: -.1363E+01   T at   34  2   RLX: 0.367
       a =  8.000      CL =  2.1872
      Cm = -0.2908     CD =  0.02552   =>   CDf =  0.00697    CDp =  0.01855

 Side 1  free  transition at x/c =  0.4663   59
 Side 2  free  transition at x/c =  0.3532   34

   2   rms: 0.3106E+00   max: 0.5145E+01   D at    2  1   RLX: 0.213
       a =  8.000      CL =  2.1870
      Cm = -0.2893     CD =  0.02581   =>   CDf =  0.00725    CDp =  0.01856

 Side 1  free  transition at x/c =  0.4628   59
 Side 2  free  transition at x/c =  0.3587   35

   3   rms: 0.7564E-01   max: 0.4432E+00   D at   35  2
       a =  8.000      CL =  2.1872
      Cm = -0.2803     CD =  0.02819   =>   CDf =  0.00717    CDp =  0.02102

 Side 1  free  transition at x/c =  0.4525   58
 Side 2  free  transition at x/c =  0.3711   35

   4   rms: 0.3622E-01   max: -.3761E+00   D at   36  2
       a =  8.000      CL =  2.1879
      Cm = -0.2806     CD =  0.02851   =>   CDf =  0.00713    CDp =  0.02138

 Side 1  free  transition at x/c =  0.4518   58
 Side 2  free  transition at x/c =  0.3805   36

   5   rms: 0.2324E-01   max: 0.3347E+00   D at   36  2
       a =  8.000      CL =  2.1899
      Cm = -0.2809     CD =  0.02842   =>   CDf =  0.00701    CDp =  0.02141

 Side 1  free  transition at x/c =  0.4517   58
 Side 2  free  transition at x/c =  0.3778   36

   6   rms: 0.4025E-02   max: 0.4026E-01   D at   36  2
       a =  8.000      CL =  2.1899
      Cm = -0.2809     CD =  0.02842   =>   CDf =  0.00703    CDp =  0.02140

 Side 1  free  transition at x/c =  0.4517   58
 Side 2  free  transition at x/c =  0.3768   36

   7   rms: 0.9618E-04   max: -.1741E-02   D at   38  2
       a =  8.000      CL =  2.1899
      Cm = -0.2809     CD =  0.02842   =>   CDf =  0.00703    CDp =  0.02139

 Point added to stored polar  1
 Point written to save file  000053M0.1.log                                  
 Dump file unspecified or not available
 Calculating wake trajectory ...
 Calculating source influence matrix ...

 Solving BL system ...

 Side 1  free  transition at x/c =  0.4517   58
 Side 2  free  transition at x/c =  0.3768   36

   1   rms: 0.1509E+00   max: -.1130E+01   T at   36  2   RLX: 0.443
       a =  9.000      CL =  2.2051
      Cm = -0.2765     CD =  0.03034   =>   CDf =  0.00705    CDp =  0.02329

 Side 1  free  transition at x/c =  0.4396   58
 Side 2  free  transition at x/c =  0.4010   37

   2   rms: 0.1048E+00   max: -.8330E+00   T at   37  2   RLX: 0.600
       a =  9.000      CL =  2.2349
      Cm = -0.2750     CD =  0.03144   =>   CDf =  0.00670    CDp =  0.02474

 Side 1  free  transition at x/c =  0.4254   58
 Side 2  free  transition at x/c =  0.4339   38

   3   rms: 0.4998E-01   max: -.3788E+00   D at   58  1
       a =  9.000      CL =  2.2118
      Cm = -0.2693     CD =  0.03329   =>   CDf =  0.00703    CDp =  0.02626

 Side 1  free  transition at x/c =  0.4238   58
 Side 2  free  transition at x/c =  0.4405   39

   4   rms: 0.2413E-01   max: -.2467E+00   C at   39  2
       a =  9.000      CL =  2.2180
      Cm = -0.2704     CD =  0.03333   =>   CDf =  0.00687    CDp =  0.02646

 Side 1  free  transition at x/c =  0.4219   58
 Side 2  free  transition at x/c =  0.4487   39

   5   rms: 0.3726E-02   max: -.5161E-01   D at   39  2
       a =  9.000      CL =  2.2189
      Cm = -0.2705     CD =  0.03331   =>   CDf =  0.00692    CDp =  0.02639

 Side 1  free  transition at x/c =  0.4217   57
 Side 2  free  transition at x/c =  0.4488   39

   6   rms: 0.2533E-03   max: 0.2557E-02   C at   39  2
       a =  9.000      CL =  2.2188
      Cm = -0.2705     CD =  0.03332   =>   CDf =  0.00693    CDp =  0.02639

 Side 1  free  transition at x/c =  0.4217   57
 Side 2  free  transition at x/c =  0.4487   39

   7   rms: 0.5020E-05   max: 0.4401E-04   D at   82  2
       a =  9.000      CL =  2.2188
      Cm = -0.2705     CD =  0.03332   =>   CDf =  0.00692    CDp =  0.02639

 Point added to stored polar  1
 Point written to save file  000053M0.1.log                                  
 Dump file unspecified or not available
 Calculating wake trajectory ...
 Calculating source influence matrix ...

 Solving BL system ...

 Side 1  free  transition at x/c =  0.4217   57
 Side 2  free  transition at x/c =  0.4487   39

   1   rms: 0.1803E+00   max: -.1278E+01   C at   39  2   RLX: 0.391
       a = 10.000      CL =  2.2120
      Cm = -0.2650     CD =  0.03673   =>   CDf =  0.00694    CDp =  0.02978

 Side 1  free  transition at x/c =  0.4061   57
 Side 2  free  transition at x/c =  0.4842   41

   2   rms: 0.2499E+00   max: -.4113E+01   C at   41  2   RLX: 0.122
       a = 10.000      CL =  2.2130
      Cm = -0.2631     CD =  0.03765   =>   CDf =  0.00687    CDp =  0.03077

 Side 1  free  transition at x/c =  0.4043   56
 Side 2  free  transition at x/c =  0.4939   42

   3   rms: 0.2117E+00   max: -.2951E+01   C at   42  2   RLX: 0.169
       a = 10.000      CL =  2.2159
      Cm = -0.2628     CD =  0.03820   =>   CDf =  0.00690    CDp =  0.03131

 Side 1  free  transition at x/c =  0.4022   56
 Side 2  free  transition at x/c =  0.5087   43

   4   rms: 0.2641E+00   max: -.3887E+01   C at   43  2   RLX: 0.129
       a = 10.000      CL =  2.2189
      Cm = -0.2627     CD =  0.03851   =>   CDf =  0.00681    CDp =  0.03170

 Side 1  free  transition at x/c =  0.4009   56
 Side 2  free  transition at x/c =  0.5240   43

   5   rms: 0.1085E+00   max: -.1160E+01   T at   43  2   RLX: 0.431
       a = 10.000      CL =  2.2268
      Cm = -0.2619     CD =  0.03929   =>   CDf =  0.00676    CDp =  0.03253

 Side 1  free  transition at x/c =  0.3966   56
 Side 2 forced transition at x/c =  1.0001   71

   6   rms: 0.5138E-01   max: 0.4287E+00   D at   43  2
       a = 10.000      CL =  2.2344
      Cm = -0.2603     CD =  0.03994   =>   CDf =  0.00602    CDp =  0.03393

 Side 1  free  transition at x/c =  0.3914   57
 Side 2 forced transition at x/c =  1.0001   70

   7   rms: 0.8029E-02   max: 0.5188E-01   D at   43  2
       a = 10.000      CL =  2.2338
      Cm = -0.2602     CD =  0.03992   =>   CDf =  0.00644    CDp =  0.03347

 Side 1  free  transition at x/c =  0.3917   57
 Side 2 forced transition at x/c =  1.0001   70

   8   rms: 0.1239E-02   max: -.1335E-01   D at    4  1
       a = 10.000      CL =  2.2340
      Cm = -0.2602     CD =  0.03991   =>   CDf =  0.00642    CDp =  0.03349

 Side 1  free  transition at x/c =  0.3918   57
 Side 2 forced transition at x/c =  1.0001   70

   9   rms: 0.6844E-05   max: -.5046E-04   D at   82  2
       a = 10.000      CL =  2.2340
      Cm = -0.2602     CD =  0.03991   =>   CDf =  0.00642    CDp =  0.03349

 Point added to stored polar  1
 Point written to save file  000053M0.1.log                                  
 Dump file unspecified or not available
 Calculating wake trajectory ...
 Calculating source influence matrix ...

 Solving BL system ...

 Side 1  free  transition at x/c =  0.3918   57
 Side 2 forced transition at x/c =  1.0001   70

   1   rms: 0.1487E+00   max: -.4548E+00   D at   58  1   RLX: 0.722
       a = 11.000      CL =  2.2491
      Cm = -0.2538     CD =  0.04528   =>   CDf =  0.00644    CDp =  0.03884

 Side 1  free  transition at x/c =  0.3649   55
 Side 2 forced transition at x/c =  1.0001   70

   2   rms: 0.5029E-01   max: 0.3139E+00   D at   56  1
       a = 11.000      CL =  2.2389
      Cm = -0.2507     CD =  0.04940   =>   CDf =  0.00657    CDp =  0.04283

 Side 1  free  transition at x/c =  0.3601   55
 Side 2 forced transition at x/c =  1.0001   70

   3   rms: 0.3820E-02   max: 0.4621E-01   D at   78  1
       a = 11.000      CL =  2.2412
      Cm = -0.2509     CD =  0.04880   =>   CDf =  0.00633    CDp =  0.04247

 Side 1  free  transition at x/c =  0.3594   55
 Side 2 forced transition at x/c =  1.0001   70

   4   rms: 0.8946E-04   max: 0.1284E-02   D at   77  1
       a = 11.000      CL =  2.2412
      Cm = -0.2509     CD =  0.04880   =>   CDf =  0.00635    CDp =  0.04245

 Point added to stored polar  1
 Point written to save file  000053M0.1.log                                  
 Dump file unspecified or not available
 Calculating wake trajectory ...
 Calculating source influence matrix ...

 Solving BL system ...

 Side 1  free  transition at x/c =  0.3594   55
 Side 2 forced transition at x/c =  1.0001   70

   1   rms: 0.1323E+00   max: 0.4393E+00   D at   75  1   RLX: 0.618
       a = 12.000      CL =  2.2484
      Cm = -0.2461     CD =  0.05484   =>   CDf =  0.00592    CDp =  0.04892

 Side 1  free  transition at x/c =  0.3401   55
 Side 2 forced transition at x/c =  1.0001   69

   2   rms: 0.5277E-01   max: -.3823E+00   D at   55  1
       a = 12.000      CL =  2.2427
      Cm = -0.2429     CD =  0.05972   =>   CDf =  0.00635    CDp =  0.05337

 Side 1  free  transition at x/c =  0.3263   54
 Side 2 forced transition at x/c =  1.0001   69

   3   rms: 0.8154E-02   max: -.9160E-01   D at   54  1
       a = 12.000      CL =  2.2387
      Cm = -0.2426     CD =  0.05981   =>   CDf =  0.00628    CDp =  0.05353

 Side 1  free  transition at x/c =  0.3270   54
 Side 2 forced transition at x/c =  1.0001   69

   4   rms: 0.1379E-02   max: -.8939E-02   D at   76  1
       a = 12.000      CL =  2.2398
      Cm = -0.2427     CD =  0.05969   =>   CDf =  0.00623    CDp =  0.05346

 Side 1  free  transition at x/c =  0.3267   54
 Side 2 forced transition at x/c =  1.0001   69

   5   rms: 0.9937E-04   max: -.6799E-03   D at   83  2
       a = 12.000      CL =  2.2398
      Cm = -0.2427     CD =  0.05970   =>   CDf =  0.00624    CDp =  0.05346

 Point added to stored polar  1
 Point written to save file  000053M0.1.log                                  
 Dump file unspecified or not available
 Calculating wake trajectory ...
 Calculating source influence matrix ...

 Solving BL system ...

 Side 1  free  transition at x/c =  0.3267   54
 Side 2 forced transition at x/c =  1.0001   69

   1   rms: 0.1340E+00   max: 0.5292E+00   D at   74  1   RLX: 0.531
       a = 13.000      CL =  2.2359
      Cm = -0.2389     CD =  0.06681   =>   CDf =  0.00580    CDp =  0.06101

 Side 1  free  transition at x/c =  0.3108   54
 Side 2 forced transition at x/c =  1.0001   68

   2   rms: 0.6117E-01   max: 0.2636E+00   D at   75  1
       a = 13.000      CL =  2.2366
      Cm = -0.2361     CD =  0.07237   =>   CDf =  0.00618    CDp =  0.06618

 Side 1  free  transition at x/c =  0.2899   53
 Side 2 forced transition at x/c =  1.0001   68

   3   rms: 0.1486E-01   max: -.1422E+00   C at   53  1
       a = 13.000      CL =  2.2265
      Cm = -0.2355     CD =  0.07304   =>   CDf =  0.00624    CDp =  0.06680

 Side 1  free  transition at x/c =  0.2942   53
 Side 2 forced transition at x/c =  1.0001   68

   4   rms: 0.2205E-02   max: -.1447E-01   D at   54  1
       a = 13.000      CL =  2.2279
      Cm = -0.2355     CD =  0.07270   =>   CDf =  0.00611    CDp =  0.06660

 Side 1  free  transition at x/c =  0.2936   53
 Side 2 forced transition at x/c =  1.0001   68

   5   rms: 0.1695E-03   max: -.1013E-02   D at   83  2
       a = 13.000      CL =  2.2280
      Cm = -0.2355     CD =  0.07272   =>   CDf =  0.00612    CDp =  0.06660

 Side 1  free  transition at x/c =  0.2936   53
 Side 2 forced transition at x/c =  1.0001   68

   6   rms: 0.6010E-05   max: -.4673E-04   D at   83  2
       a = 13.000      CL =  2.2280
      Cm = -0.2355     CD =  0.07272   =>   CDf =  0.00612    CDp =  0.06661

 Point added to stored polar  1
 Point written to save file  000053M0.1.log                                  
 Dump file unspecified or not available
 Calculating wake trajectory ...
 Calculating source influence matrix ...

 Solving BL system ...

 Side 1  free  transition at x/c =  0.2936   53
 Side 2 forced transition at x/c =  1.0001   68

   1   rms: 0.1353E+00   max: 0.6721E+00   C at   53  1   RLX: 0.464
       a = 14.000      CL =  2.2189
      Cm = -0.2329     CD =  0.08047   =>   CDf =  0.00614    CDp =  0.07433

 Side 1  free  transition at x/c =  0.2765   52
 Side 2 forced transition at x/c =  1.0001   68

   2   rms: 0.6836E-01   max: 0.3269E+00   D at   72  1
       a = 14.000      CL =  2.2114
      Cm = -0.2301     CD =  0.08846   =>   CDf =  0.00563    CDp =  0.08283

 Side 1  free  transition at x/c =  0.2576   52
 Side 2 forced transition at x/c =  1.0001   67

   3   rms: 0.9640E-02   max: 0.7766E-01   D at   72  1
       a = 14.000      CL =  2.2057
      Cm = -0.2297     CD =  0.08801   =>   CDf =  0.00606    CDp =  0.08195

 Side 1  free  transition at x/c =  0.2592   52
 Side 2 forced transition at x/c =  1.0001   67

   4   rms: 0.1101E-02   max: 0.1192E-01   D at   72  1
       a = 14.000      CL =  2.2052
      Cm = -0.2297     CD =  0.08796   =>   CDf =  0.00601    CDp =  0.08196

 Side 1  free  transition at x/c =  0.2593   52
 Side 2 forced transition at x/c =  1.0001   67

   5   rms: 0.3756E-04   max: 0.2916E-03   D at   83  2
       a = 14.000      CL =  2.2052
      Cm = -0.2297     CD =  0.08795   =>   CDf =  0.00600    CDp =  0.08195

 Point added to stored polar  1
 Point written to save file  000053M0.1.log                                  
 Dump file unspecified or not available
 Calculating wake trajectory ...
 Calculating source influence matrix ...

 Solving BL system ...

 Side 1  free  transition at x/c =  0.2593   52
 Side 2 forced transition at x/c =  1.0001   67

   1   rms: 0.1328E+00   max: 0.7776E+00   C at   52  1   RLX: 0.409
       a = 15.000      CL =  2.1929
      Cm = -0.2280     CD = Got result {'DD': 0.01839, 'Dmin': 0.0178, 'LL': -1.82}
Completed successfully in 2.06 seconds. [{'DD': 0.01839, 'Dmin': 0.0178, 'LL': -1.82}]
 0.09603   =>   CDf =  0.00602    CDp =  0.09001

 Side 1  free  transition at x/c =  0.2406   51
 Side 2 forced transition at x/c =  1.0001   67

   2   rms: 0.8189E-01   max: 0.4581E+00   D at   71  1
       a = 15.000      CL =  2.1662
      Cm = -0.2257     CD =  0.10858   =>   CDf =  0.00606    CDp =  0.10251

 Side 1  free  transition at x/c =  0.2234   50
 Side 2 forced transition at x/c =  1.0001   67

   3   rms: 0.9720E-02   max: -.1164E+00   D at   51  1
       a = 15.000      CL =  2.1686
      Cm = -0.2255     CD =  0.10566   =>   CDf =  0.00593    CDp =  0.09973

 Side 1  free  transition at x/c =  0.2224   50
 Side 2 forced transition at x/c =  1.0001   67

   4   rms: 0.1030E-02   max: 0.1567E-01   D at   69  1
       a = 15.000      CL =  2.1681
      Cm = -0.2255     CD =  0.10569   =>   CDf =  0.00595    CDp =  0.09973

 Side 1  free  transition at x/c =  0.2224   50
 Side 2 forced transition at x/c =  1.0001   67

   5   rms: 0.6615E-04   max: 0.4046E-03   D at   83  2
       a = 15.000      CL =  2.1680
      Cm = -0.2255     CD =  0.10567   =>   CDf =  0.00595    CDp =  0.09972

 Point added to stored polar  1
 Point written to save file  000053M0.1.log                                  
 Dump file unspecified or not available

.OPERva   c>  
 XFOIL   c>  
