Job launching after 0.45 seconds in submission.
Running python job.
Changed into dir /home/simonx/Documents/Udacity/Projects/capstone/PESM_NSGA2_CST_XFoil
Importing evaluationFunctionXFoil.py
Running evaluationFunctionXFoil.main()
0
1
2
0.04
resp: 
 ===================================================
  XFOIL Version 6.97
  Copyright (C) 2000   Mark Drela, Harold Youngren

  This software comes with ABSOLUTELY NO WARRANTY,
    subject to the GNU General Public License.

  Caveat computor
 ===================================================

 File  xfoil.def  not found

   QUIT    Exit program

  .OPER    Direct operating point(s)
  .MDES    Complex mapping design routine
  .QDES    Surface speed design routine
  .GDES    Geometry design routine

   SAVE f  Write airfoil to labeled coordinate file
   PSAV f  Write airfoil to plain coordinate file
   ISAV f  Write airfoil to ISES coordinate file
   MSAV f  Write airfoil to MSES coordinate file
   REVE    Reverse written-airfoil node ordering
   DELI i  Change written-airfoil file delimiters

   LOAD f  Read buffer airfoil from coordinate file
   NACA i  Set NACA 4,5-digit airfoil and buffer airfoil
   INTE    Set buffer airfoil by interpolating two airfoils
   NORM    Buffer airfoil normalization toggle
   HALF    Halve the number of points in buffer airfoil
   XYCM rr Change CM reference location, currently  0.25000 0.00000

   BEND    Display structural properties of current airfoil

   PCOP    Set current-airfoil panel nodes directly from buffer airfoil points
   PANE    Set current-airfoil panel nodes ( 160 ) based on curvature
  .PPAR    Show/change paneling

  .PLOP    Plotting options

   WDEF f  Write  current-settings file
   RDEF f  Reread current-settings file
   NAME s  Specify new airfoil name
   NINC    Increment name version number

   Z       Zoom    | (available in all menus)
   U       Unzoom  | 

 XFOIL   c>   ...............................................

  G raphics-enable flag:        T
  S ize of plot object          10.00"
  A spect ratio of plot object   0.5500
  P age dimensions              11.00 x  8.50"
  M argins from page edges       0.00",  0.00"
  F ont size (relative)          0.0150
  W indow/screen size fraction   0.8000
  B lowup input method:        Cursor    
  O rientation of plot:        Landscape 
  C olor PostScript output?     F

      Option, Value   (or <Return>)    c>   ...............................................

  G raphics-enable flag:        F
  S ize of plot object          10.00"
  A spect ratio of plot object   0.5500
  P age dimensions              11.00 x  8.50"
  M argins from page edges       0.00",  0.00"
  F ont size (relative)          0.0150
  W indow/screen size fraction   0.8000
  B lowup input method:        Cursor    
  O rientation of plot:        Landscape 
  C olor PostScript output?     F

      Option, Value   (or <Return>)    c>  
 XFOIL   c>  
 Labeled airfoil file.  Name:  000272                                          

 Number of input coordinate points: 200
 Clockwise ordering
 Max thickness =     0.140848  at x =   0.182
 Max camber    =     0.060411  at x =   0.484

  LE  x,y  =  -0.00006  -0.00177  |   Chord =   0.99994
  TE  x,y  =   0.99988   0.00002  |

 Current airfoil nodes set from buffer airfoil nodes ( 200 )

 XFOIL   c>  
 You are working with the buffer airfoil

.GDES   c>  
  i       x        y      angle
   2   0.9990   0.0002    0.004
   3   0.9978   0.0004   -0.063
   4   0.9961   0.0007   -0.049
   5   0.9938   0.0012   -0.060
   6   0.9911   0.0017   -0.114
   7   0.9880   0.0023   -0.086
   8   0.9843   0.0030   -0.136
   9   0.9801   0.0038   -0.107
  10   0.9755   0.0048   -0.152
  11   0.9704   0.0058   -0.147
  12   0.9649   0.0069   -0.152
  13   0.9589   0.0082   -0.168
  14   0.9524   0.0096   -0.169
  15   0.9455   0.0111   -0.177
  16   0.9382   0.0127   -0.182
  17   0.9304   0.0144   -0.173
  18   0.9222   0.0162   -0.180
  19   0.9135   0.0182   -0.176
  20   0.9045   0.0203   -0.174
  21   0.8951   0.0225   -0.157
  22   0.8853   0.0248   -0.159
  23   0.8751   0.0272   -0.143
  24   0.8645   0.0298   -0.133
  25   0.8536   0.0325   -0.114
  26   0.8423   0.0353   -0.099
  27   0.8307   0.0382   -0.076
  28   0.8187   0.0412   -0.059
  29   0.8065   0.0442   -0.025
  30   0.7939   0.0474   -0.008
  31   0.7810   0.0506    0.029
  32   0.7679   0.0539    0.061
  33   0.7545   0.0573    0.087
  34   0.7409   0.0607    0.133
  35   0.7270   0.0641    0.168
  36   0.7129   0.0675    0.205
  37   0.6986   0.0710    0.254
  38   0.6841   0.0744    0.290
  39   0.6694   0.0777    0.343
  40   0.6545   0.0811    0.385
  41   0.6395   0.0843    0.438
  42   0.6243   0.0874    0.484
  43   0.6091   0.0905    0.537
  44   0.5937   0.0934    0.586
  45   0.5782   0.0962    0.635
  46   0.5627   0.0988    0.689
  47   0.5471   0.1012    0.734
  48   0.5314   0.1034    0.790
  49   0.5157   0.1054    0.830
  50   0.5000   0.1072    0.880
  51   0.4843   0.1088    0.926
  52   0.4686   0.1100    0.959
  53   0.4529   0.1110    1.006
  54   0.4373   0.1118    1.034
  55   0.4218   0.1122    1.065
  56   0.4063   0.1124    1.088
  57   0.3909   0.1123    1.114
  58   0.3757   0.1118    1.123
  59   0.3605   0.1111    1.136
  60   0.3455   0.1101    1.139
  61   0.3306   0.1088    1.138
  62   0.3159   0.1072    1.127
  63   0.3014   0.1054    1.119
  64   0.2871   0.1033    1.098
  65   0.2730   0.1009    1.074
  66   0.2591   0.0983    1.049
  67   0.2455   0.0955    1.013
  68   0.2321   0.0925    0.972
  69   0.2190   0.0893    0.936
  70   0.2061   0.0860    0.890
  71   0.1935   0.0825    0.846
  72   0.1813   0.0790    0.795
  73   0.1693   0.0753    0.741
  74   0.1577   0.0716    0.701
  75   0.1464   0.0678    0.646
  76   0.1355   0.0640    0.591
  77   0.1249   0.0602    0.546
  78   0.1147   0.0564    0.499
  79   0.1049   0.0527    0.468
  80   0.0955   0.0490    0.411
  81   0.0865   0.0454    0.395
  82   0.0778   0.0419    0.365
  83   0.0696   0.0386    0.354
  84   0.0618   0.0353    0.346
  85   0.0545   0.0322    0.360
  86   0.0476   0.0291    0.406
  87   0.0411   0.0263    0.447
  88   0.0351   0.0236    0.560
  89   0.0296   0.0210    0.685
  90   0.0245   0.0186    0.877
  91   0.0199   0.0163    1.172
  92   0.0157   0.0141    1.557
  93   0.0120   0.0120    2.135
  94   0.0089   0.0101    2.949
  95   0.0062   0.0083    4.158
  96   0.0039   0.0065    5.964
  97   0.0022   0.0048    8.589
  98   0.0010   0.0032   12.195
  99   0.0002   0.0016   15.941
 100   0.0000   0.0000   10.994
 101   0.0002  -0.0067    4.244
 102   0.0010  -0.0133    4.305
 103   0.0022  -0.0199    4.424
 104   0.0039  -0.0263    4.553
 105   0.0062  -0.0325    4.720
 106   0.0089  -0.0384    4.928
 107   0.0120  -0.0441    5.087
 108   0.0157  -0.0495    5.278
 109   0.0199  -0.0545    5.415
 110   0.0245  -0.0591    5.480
 111   0.0296  -0.0633    5.486
 112   0.0351  -0.0670    5.412
 113   0.0411  -0.0703    5.249
 114   0.0476  -0.0731    5.001
 115   0.0545  -0.0754    4.697
 116   0.0618  -0.0771    4.345
 117   0.0696  -0.0784    3.978
 118   0.0778  -0.0792    3.584
 119   0.0865  -0.0794    3.216
 120   0.0955  -0.0792    2.838
 121   0.1049  -0.0785    2.491
 122   0.1147  -0.0773    2.173
 123   0.1249  -0.0757    1.867
 124   0.1355  -0.0736    1.593
 125   0.1464  -0.0712    1.334
 126   0.1577  -0.0684    1.100
 127   0.1693  -0.0653    0.875
 128   0.1813  -0.0620    0.687
 129   0.1935  -0.0583    0.491
 130   0.2061  -0.0545    0.328
 131   0.2190  -0.0505    0.165
 132   0.2321  -0.0464    0.021
 133   0.2455  -0.0422   -0.116
 134   0.2591  -0.0379   -0.243
 135   0.2730  -0.0336   -0.359
 136   0.2871  -0.0294   -0.469
 137   0.3014  -0.0252   -0.566
 138   0.3159  -0.0211   -0.656
 139   0.3306  -0.0171   -0.737
 140   0.3455  -0.0133   -0.807
 141   0.3605  -0.0097   -0.877
 142   0.3757  -0.0063   -0.922
 143   0.3909  -0.0032   -0.973
 144   0.4063  -0.0002   -1.006
 145   0.4218   0.0024   -1.027
 146   0.4373   0.0048   -1.049
 147   0.4529   0.0069   -1.053
 148   0.4686   0.0087   -1.049
 149   0.4843   0.0103   -1.033
 150   0.5000   0.0115   -1.016
 151   0.5157   0.0125   -0.991
 152   0.5314   0.0132   -0.945
 153   0.5471   0.0136   -0.909
 154   0.5627   0.0138   -0.859
 155   0.5782   0.0137   -0.797
 156   0.5937   0.0135   -0.743
 157   0.6091   0.0130   -0.679
 158   0.6243   0.0124   -0.608
 159   0.6395   0.0116   -0.541
 160   0.6545   0.0106   -0.462
 161   0.6694   0.0096   -0.395
 162   0.6841   0.0084   -0.318
 163   0.6986   0.0072   -0.243
 164   0.7129   0.0060   -0.171
 165   0.7270   0.0047   -0.090
 166   0.7409   0.0035   -0.024
 167   0.7545   0.0022    0.046
 168   0.7679   0.0010    0.117
 169   0.7810  -0.0002    0.187
 170   0.7939  -0.0013    0.241
 171   0.8065  -0.0023    0.308
 172   0.8187  -0.0032    0.363
 173   0.8307  -0.0041    0.409
 174   0.8423  -0.0048    0.459
 175   0.8536  -0.0054    0.502
 176   0.8645  -0.0059    0.544
 177   0.8751  -0.0063    0.570
 178   0.8853  -0.0066    0.601
 179   0.8951  -0.0067    0.624
 180   0.9045  -0.0068    0.634
 181   0.9135  -0.0067    0.641
 182   0.9222  -0.0066    0.657
 183   0.9304  -0.0063    0.656
 184   0.9382  -0.0060    0.633
 185   0.9455  -0.0057    0.641
 186   0.9524  -0.0052    0.609
 187   0.9589  -0.0047    0.598
 188   0.9649  -0.0042    0.567
 189   0.9704  -0.0037    0.529
 190   0.9755  -0.0032    0.494
 191   0.9801  -0.0027    0.463
 192   0.9843  -0.0022    0.422
 193   0.9880  -0.0017    0.374
 194   0.9911  -0.0013    0.315
 195   0.9938  -0.0009    0.279
 196   0.9961  -0.0006    0.218
 197   0.9978  -0.0003    0.139
 198   0.9990  -0.0002    0.173
 199   0.9998  -0.0000   -0.012

 Maximum panel corner angle = 15.941   at  i,x,y  =  99   0.0002   0.0016

 Enter corner angle criterion for refinement (deg):   7.970
 Enter type of spline parameter (1=uniform, 2=arclength):   1
 Enter refinement x limits:  -0.10000   1.10000
 Number of points added:            8
 Max thickness =     0.140928  at x =   0.181
 Max camber    =     0.059393  at x =   0.484

 Maximum panel corner angle = 18.087   at  i,x,y  = 105   0.0001   0.0013

.GDES   c>  
 Buffer airfoil is not identical to current airfoil

 XFOIL   c>  
 Blunt trailing edge.  Gap =  0.00025

 Paneling parameters used...
   Number of panel nodes       160
   Panel bunching parameter    1.000
   TE/LE panel density ratio   0.150
   Refined-area/LE panel density ratio    0.200
   Top    side refined area x/c limits  1.000 1.000
   Bottom side refined area x/c limits  1.000 1.000

 XFOIL   c>  
Enter output filename   s>  
 XFOIL   c>  
.OPERi   c>   Current iteration limit:          20

Enter new iteration limit   i>  
Enter new iteration limit   i>  
Enter new iteration limit   i>  
.OPERi   c>  
 M  =    0.0000
 Re =  0.3000E+06

.OPERv   c>  
 Sonic Cp =   -420.65      Sonic Q/Qinf =    22.825


.OPERv   c>  
 Polar  1 newly created for accumulation
 Airfoil archived with polar: 000272                                          

Enter  polar save filename  OR  <return> for no file   s>  
 New polar save file available

Enter  polar dump filename  OR  <return> for no file   s>  
 Polar dump file will NOT be written

 Polar accumulation enabled

.OPERva   c>   Calculating unit vorticity distributions ...
 Calculating wake trajectory ...
 Calculating source influence matrix ...

 Solving BL system ...

 Initializing BL ...
    side            1  ...
 MRCHUE: Inverse mode at  15     Hk =   3.800
 MRCHUE: Inverse mode at  16     Hk =   4.403
 MRCHUE: Inverse mode at  17     Hk =   4.954
 MRCHUE: Inverse mode at  18     Hk =   5.475
 MRCHUE: Inverse mode at  19     Hk =   5.977
 MRCHUE: Inverse mode at  20     Hk =   6.471
 MRCHUE: Inverse mode at  21     Hk =   6.962
 MRCHUE: Inverse mode at  22     Hk =   7.456
 MRCHUE: Inverse mode at  23     Hk =   7.956
 MRCHUE: Inverse mode at  24     Hk =   8.467
 MRCHUE: Inverse mode at  25     Hk =   8.993
 MRCHUE: Inverse mode at  26     Hk =   9.537
 MRCHUE: Inverse mode at  27     Hk =  10.105
 MRCHUE: Inverse mode at  28     Hk =   8.288
 MRCHUE: Inverse mode at  29     Hk =   6.162
 MRCHUE: Inverse mode at  30     Hk =   4.691
 MRCHUE: Inverse mode at  31     Hk =   3.533
 MRCHUE: Inverse mode at  32     Hk =   2.548
 MRCHUE: Inverse mode at  77     Hk =   2.500
 MRCHUE: Inverse mode at  78     Hk =   2.500
 MRCHUE: Inverse mode at  79     Hk =   2.500
 MRCHUE: Inverse mode at  80     Hk =   2.500
 MRCHUE: Inverse mode at  81     Hk =   2.500
 MRCHUE: Inverse mode at  82     Hk =   2.500
 MRCHUE: Inverse mode at  83     Hk =   2.500
 MRCHUE: Inverse mode at  84     Hk =   2.500
 MRCHUE: Convergence failed at  85  side 1    Res =  0.1617E+03
    side            2  ...
 MRCHUE: Inverse mode at  26     Hk =   4.285
 MRCHUE: Inverse mode at  27     Hk =   5.199
 MRCHUE: Inverse mode at  28     Hk =   6.115
 MRCHUE: Inverse mode at  29     Hk =   7.046
 MRCHUE: Inverse mode at  30     Hk =   8.004
 MRCHUE: Inverse mode at  31     Hk =   8.994
 MRCHUE: Inverse mode at  32     Hk =   9.515
 MRCHUE: Inverse mode at  33     Hk =   4.525
 MRCHUE: Inverse mode at  34     Hk =   2.500
 MRCHUE: Inverse mode at  35     Hk =   2.500
 MRCHUE: Inverse mode at  36     Hk =   2.500
 MRCHUE: Inverse mode at  37     Hk =   2.500
 MRCHUE: Inverse mode at  38     Hk =   2.500
 MRCHUE: Inverse mode at  39     Hk =   2.500
 MRCHUE: Inverse mode at  40     Hk =   2.500
 MRCHUE: Inverse mode at  41     Hk =   2.500
 MRCHUE: Inverse mode at  42     Hk =   2.500
 MRCHUE: Inverse mode at  43     Hk =   2.500
 MRCHUE: Inverse mode at  44     Hk =   2.500
 MRCHUE: Inverse mode at  45     Hk =   2.500
 MRCHUE: Inverse mode at  46     Hk =   2.500
 MRCHUE: Inverse mode at  47     Hk =   2.500
 MRCHUE: Inverse mode at  48     Hk =   2.500
 MRCHUE: Convergence failed at  77  side 2    Res =  0.3318E+01
 MRCHUE: Convergence failed at  79  side 2    Res =  0.6361E-01

 MRCHDU: Convergence failed at  85  side 1    Res =  0.1613E+03
 MRCHDU: Convergence failed at  77  side 2    Res =  0.2295E+01
 MRCHDU: Convergence failed at  79  side 2    Res =  0.6358E-01
 Side 1  free  transition at x/c =  0.0500   28
 Side 2  free  transition at x/c =  0.1832   32

   1   rms: 0.1278E+01   max: -.4838E+01   D at   41  2   RLX: 0.103
       a =  2.000      CL =  0.5894
      Cm = -0.1368     CD =  0.00329   =>   CDf =  0.00884    CDp = -0.00555

 Side 1  free  transition at x/c =  0.0544   29
 Side 2  free  transition at x/c =  0.1897   33

   2   rms: 0.7964E+00   max: -.4422E+01   T at   29  1   RLX: 0.113
       a =  2.000      CL =  0.5793
      Cm = -0.1353     CD =  0.00410   =>   CDf =  0.00906    CDp = -0.00497

 Side 1  free  transition at x/c =  0.0592   29
 Side 2  free  transition at x/c =  0.1881   33

   3   rms: 0.5377E+01   max: -.5099E+02   T at   29  1   RLX: 0.010
       a =  2.000      CL =  0.5754
      Cm = -0.1368     CD =  0.00462   =>   CDf =  0.00924    CDp = -0.00462

 Side 1  free  transition at x/c =  0.0641   30
 Side 2  free  transition at x/c =  0.1876   33

   4   rms: 0.6445E+00   max: -.5679E+01   T at   30  1   RLX: 0.088
       a =  2.000      CL =  0.5768
      Cm = -0.1346     CD =  0.00487   =>   CDf =  0.00943    CDp = -0.00456

 Side 1  free  transition at x/c =  0.0742   32
 Side 2  free  transition at x/c =  0.1856   33

   5   rms: 0.9984E+00   max: -.9874E+01   T at   32  1   RLX: 0.051
       a =  2.000      CL =  0.5785
      Cm = -0.1341     CD =  0.00519   =>   CDf =  0.00961    CDp = -0.00441

 Side 1  free  transition at x/c =  0.0828   33
 Side 2  free  transition at x/c =  0.1844   33

   6   rms: 0.1151E+01   max: -.1456E+02   D at   33  1   RLX: 0.034
       a =  2.000      CL =  0.5774
      Cm = -0.1339     CD =  0.00562   =>   CDf =  0.00983    CDp = -0.00421

 Side 1  free  transition at x/c =  0.4729   57
 Side 2  free  transition at x/c =  0.1834   32

   7   rms: 0.5971E+00   max: -.4328E+01   C at   57  1   RLX: 0.116
       a =  2.000      CL =  0.5832
      Cm = -0.1332     CD =  0.00537   =>   CDf =  0.00801    CDp = -0.00264

 MRCHDU: Convergence failed at  64  side 1    Res =  0.3953E+01
 MRCHDU: Convergence failed at  65  side 1    Res =  0.3229E+01
 MRCHDU: Convergence failed at  66  side 1    Res =  0.3477E+01
 MRCHDU: Convergence failed at  67  side 1    Res =  0.3571E+01
 MRCHDU: Convergence failed at  68  side 1    Res =  0.3649E+01
 MRCHDU: Convergence failed at  69  side 1    Res =  0.3693E+01
 MRCHDU: Convergence failed at  70  side 1    Res =  0.3731E+01
 MRCHDU: Convergence failed at  71  side 1    Res =  0.3741E+01
 MRCHDU: Convergence failed at  72  side 1    Res =  0.3734E+01
 MRCHDU: Convergence failed at  73  side 1    Res =  0.3701E+01
 MRCHDU: Convergence failed at  74  side 1    Res =  0.5197E+01
 MRCHDU: Convergence failed at  75  side 1    Res =  0.6687E+01
 MRCHDU: Convergence failed at  76  side 1    Res =  0.9281E+01
 MRCHDU: Convergence failed at  77  side 1    Res =  0.1362E+02
 MRCHDU: Convergence failed at  78  side 1    Res =  0.1809E+02
 MRCHDU: Convergence failed at  79  side 1    Res =  0.2529E+02
 MRCHDU: Convergence failed at  80  side 1    Res =  0.3301E+02
 MRCHDU: Convergence failed at  81  side 1    Res =  0.5271E+02
 MRCHDU: Convergence failed at  82  side 1    Res =  0.9269E+02
 MRCHDU: Convergence failed at  83  side 1    Res =  0.1985E+03
 MRCHDU: Convergence failed at  84  side 1    Res =  0.4965E+04
 MRCHDU: Convergence failed at  85  side 1    Res =  0.2451E+03
 Side 1  free  transition at x/c =  0.5882   64
 Side 2  free  transition at x/c =  0.1811   32

   8   rms: 0.6258E+00   max: 0.2144E+01   D at   79  2   RLX: 0.372
       a =  2.000      CL =  0.7640
      Cm = -0.2289     CD =  0.00512   =>   CDf =  0.00602    CDp = -0.00091

 Side 1  free  transition at x/c =  0.6303   66
 Side 2  free  transition at x/c =  0.1734   32

   9   rms: 0.2812E+00   max: 0.7826E+00   D at   84  2
       a =  2.000      CL =  0.6586
      Cm = -0.1357     CD =  0.01143   =>   CDf =  0.00827    CDp =  0.00316

 Side 1  free  transition at x/c =  0.6133   65
 Side 2  free  transition at x/c =  0.1693   32

  10   rms: 0.6249E-01   max: 0.4400E+00   T at   32  2
       a =  2.000      CL =  0.6203
      Cm = -0.1277     CD =  0.01785   =>   CDf =  0.00697    CDp =  0.01088

 Side 1  free  transition at x/c =  0.6100   65
 Side 2  free  transition at x/c =  0.1667   31

  11   rms: 0.5189E-01   max: 0.4104E+00   D at   32  2
       a =  2.000      CL =  0.6130
      Cm = -0.1265     CD =  0.01726   =>   CDf =  0.00699    CDp =  0.01027

 Side 1  free  transition at x/c =  0.6099   65
 Side 2  free  transition at x/c =  0.1658   31

  12   rms: 0.2009E-01   max: 0.8405E-01   D at   32  2
       a =  2.000      CL =  0.6123
      Cm = -0.1265     CD =  0.01702   =>   CDf =  0.00699    CDp =  0.01003

 Side 1  free  transition at x/c =  0.6101   65
 Side 2  free  transition at x/c =  0.1661   31

  13   rms: 0.1186E-02   max: 0.8130E-02   D at   33  2
       a =  2.000      CL =  0.6125
      Cm = -0.1265     CD =  0.01705   =>   CDf =  0.00691    CDp =  0.01014

 Side 1  free  transition at x/c =  0.6101   65
 Side 2  free  transition at x/c =  0.1660   31

  14   rms: 0.1074E-04   max: 0.6150E-04   D at   33  2
       a =  2.000      CL =  0.6125
      Cm = -0.1266     CD =  0.01705   =>   CDf =  0.00691    CDp =  0.01015

 Point added to stored polar  1
 Point written to save file  000272M0.04.log                                 
 Dump file unspecified or not available
 Calculating wake trajectory ...
 Calculating source influence matrix ...

 Solving BL system ...

 Side 1  free  transition at x/c =  0.6101   65
 Side 2  free  transition at x/c =  0.1660   31

   1   rms: 0.2241E+00   max: 0.9515E+00   T at   65  1   RLX: 0.543
       a =  3.000      CL =  0.6702
      Cm = -0.1248     CD =  0.01545   =>   CDf =  0.00679    CDp =  0.00866

 MRCHDU: Convergence failed at  66  side 1    Res =  0.4259E+01
 MRCHDU: Convergence failed at  67  side 1    Res =  0.1434E+01
 MRCHDU: Convergence failed at  68  side 1    Res =  0.1340E+01
 MRCHDU: Convergence failed at  69  side 1    Res =  0.1546E+01
 MRCHDU: Convergence failed at  70  side 1    Res =  0.1861E+01
 MRCHDU: Convergence failed at  71  side 1    Res =  0.2543E+01
 MRCHDU: Convergence failed at  72  side 1    Res =  0.3031E+01
 MRCHDU: Convergence failed at  73  side 1    Res =  0.3751E+01
 MRCHDU: Convergence failed at  74  side 1    Res =  0.4840E+01
 MRCHDU: Convergence failed at  75  side 1    Res =  0.6348E+01
 MRCHDU: Convergence failed at  76  side 1    Res =  0.8949E+01
 MRCHDU: Convergence failed at  77  side 1    Res =  0.1558E+02
 MRCHDU: Convergence failed at  78  side 1    Res =  0.3592E+02
 MRCHDU: Convergence failed at  79  side 1    Res =  0.7423E+02
 MRCHDU: Convergence failed at  80  side 1    Res =  0.1994E+02
 MRCHDU: Convergence failed at  81  side 1    Res =  0.1448E+02
 MRCHDU: Convergence failed at  82  side 1    Res =  0.2083E+02
 MRCHDU: Convergence failed at  83  side 1    Res =  0.2817E+02
 MRCHDU: Convergence failed at  84  side 1    Res =  0.2496E+02
 MRCHDU: Convergence failed at  85  side 1    Res =  0.1716E+02
 MRCHDU: Convergence failed at  86  side 1    Res =  0.9841E+02
 Side 1  free  transition at x/c =  0.5850   64
 Side 2  free  transition at x/c =  0.1754   31

   2   rms: 0.3893E+00   max: 0.2068E+01   D at   86  1   RLX: 0.725
       a =  3.000      CL =  0.6791
      Cm = -0.1479     CD =  0.01169   =>   CDf =  0.00592    CDp =  0.00577

 Side 1  free  transition at x/c =  0.5635   63
 Side 2  free  transition at x/c =  0.1730   31

   3   rms: 0.1741E+00   max: -.8624E+00   D at   65  1   RLX: 0.580
       a =  3.000      CL =  0.6766
      Cm = -0.1231     CD =  0.01603   =>   CDf =  0.00704    CDp =  0.00898

 Side 1  free  transition at x/c =  0.5640   63
 Side 2  free  transition at x/c =  0.1745   31

   4   rms: 0.3097E+00   max: -.2075E+01   C at   63  1   RLX: 0.241
       a =  3.000      CL =  0.7026
      Cm = -0.1229     CD =  0.01549   =>   CDf =  0.00683    CDp =  0.00865

 Side 1  free  transition at x/c =  0.5257   61
 Side 2  free  transition at x/c =  0.1756   31

   5   rms: 0.3061E+00   max: -.1828E+01   C at   62  1   RLX: 0.274
       a =  3.000      CL =  0.7112
      Cm = -0.1234     CD =  0.01535   =>   CDf =  0.00709    CDp =  0.00826

 MRCHDU: Convergence failed at  85  side 1    Res =  0.9464E+00
 MRCHDU: Convergence failed at  86  side 1    Res =  0.1433E+01
 Side 1  free  transition at x/c =  0.0826   34
 Side 2  free  transition at x/c =  0.1761   31

   6   rms: 0.5582E+00   max: -.1159E+02   C at   34  1   RLX: 0.043
       a =  3.000      CL =  0.7196
      Cm = -0.1313     CD =  0.01685   =>   CDf =  0.00932    CDp =  0.00752

 Side 1  free  transition at x/c =  0.0908   35
 Side 2  free  transition at x/c =  0.1760   31

   7   rms: 0.5617E+00   max: -.1190E+02   C at   35  1   RLX: 0.042
       a =  3.000      CL =  0.7172
      Cm = -0.1304     CD =  0.01721   =>   CDf =  0.00930    CDp =  0.00791

 Side 1  free  transition at x/c =  0.0991   35
 Side 2  free  transition at x/c =  0.1759   31

   8   rms: 0.8260E+00   max: -.1587E+02   C at   35  1   RLX: 0.032
       a =  3.000      CL =  0.7157
      Cm = -0.1299     CD =  0.01722   =>   CDf =  0.00927    CDp =  0.00795

 Side 1  free  transition at x/c =  0.1061   36
 Side 2  free  transition at x/c =  0.1759   31

   9   rms: 0.6755E+00   max: -.1381E+02   C at   36  1   RLX: 0.036
       a =  3.000      CL =  0.7140
      Cm = -0.1293     CD =  0.01724   =>   CDf =  0.00925    CDp =  0.00799

 Side 1  free  transition at x/c =  0.1139   37
 Side 2  free  transition at x/c =  0.1758   31

  10   rms: 0.6021E+00   max: -.1282E+02   C at   37  1   RLX: 0.039
       a =  3.000      CL =  0.7122
      Cm = -0.1287     CD =  0.01725   =>   CDf =  0.00923    CDp =  0.00802

 Side 1  free  transition at x/c =  0.1229   38
 Side 2  free  transition at x/c =  0.1758   31

  11   rms: 0.5464E+00   max: -.1203E+02   C at   38  1   RLX: 0.042
       a =  3.000      CL =  0.7104
      Cm = -0.1281     CD =  0.01726   =>   CDf =  0.00920    CDp =  0.00806

 Side 1  free  transition at x/c =  0.1335   38
 Side 2  free  transition at x/c =  0.1757   31

  12   rms: 0.7669E+00   max: -.1538E+02   C at   38  1   RLX: 0.033
       a =  3.000      CL =  0.7091
      Cm = -0.1277     CD =  0.01727   =>   CDf =  0.00917    CDp =  0.00810

 Side 1  free  transition at x/c =  0.1422   39
 Side 2  free  transition at x/c =  0.1757   31

  13   rms: 0.5612E+00   max: -.1203E+02   C at   39  1   RLX: 0.042
       a =  3.000      CL =  0.7074
      Cm = -0.1271     CD =  0.01727   =>   CDf =  0.00914    CDp =  0.00813

 Side 1  free  transition at x/c =  0.1519   40
 Side 2  free  transition at x/c =  0.1756   31

  14   rms: 0.4771E+00   max: -.1061E+02   C at   40  1   RLX: 0.047
       a =  3.000      CL =  0.7056
      Cm = -0.1265     CD =  0.01727   =>   CDf =  0.00911    CDp =  0.00816

 Side 1  free  transition at x/c =  0.1624   40
 Side 2  free  transition at x/c =  0.1756   31

  15   rms: 0.5304E+00   max: -.1097E+02   C at   40  1   RLX: 0.046
       a =  3.000      CL =  0.7040
      Cm = -0.1259     CD =  0.01727   =>   CDf =  0.00908    CDp =  0.00820

 Side 1  free  transition at x/c =  0.1721   41
 Side 2  free  transition at x/c =  0.1755   31

  16   rms: 0.4760E+00   max: -.1028E+02   C at   41  1   RLX: 0.049
       a =  3.000      CL =  0.7023
      Cm = -0.1254     CD =  0.01727   =>   CDf =  0.00904    CDp =  0.00823

 Side 1  free  transition at x/c =  0.1822   42
 Side 2  free  transition at x/c =  0.1755   31

  17   rms: 0.4127E+00   max: -.9219E+01   C at   42  1   RLX: 0.054
       a =  3.000      CL =  0.7006
      Cm = -0.1248     CD =  0.01727   =>   CDf =  0.00901    CDp =  0.00826

 Side 1  free  transition at x/c =  0.1940   42
 Side 2  free  transition at x/c =  0.1754   31

  18   rms: 0.4361E+00   max: -.9024E+01   C at   42  1   RLX: 0.055
       a =  3.000      CL =  0.6989
      Cm = -0.1242     CD =  0.01726   =>   CDf =  0.00896    CDp =  0.00829

 Side 1  free  transition at x/c =  0.2041   43
 Side 2  free  transition at x/c =  0.1753   31

  19   rms: 0.3777E+00   max: -.8160E+01   C at   43  1   RLX: 0.061
       a =  3.000      CL =  0.6971
      Cm = -0.1236     CD =  0.01725   =>   CDf =  0.00893    CDp =  0.00833

 Side 1  free  transition at x/c =  0.2150   44
 Side 2  free  transition at x/c =  0.1753   31

  20   rms: 0.3212E+00   max: -.7152E+01   C at   44  1   RLX: 0.070
       a =  3.000      CL =  0.6953
      Cm = -0.1230     CD =  0.01724   =>   CDf =  0.00888    CDp =  0.00836

 Side 1  free  transition at x/c =  0.2272   44
 Side 2  free  transition at x/c =  0.1752   31

  21   rms: 0.3339E+00   max: -.6893E+01   C at   44  1   RLX: 0.073
       a =  3.000      CL =  0.6935
      Cm = -0.1224     CD =  0.01722   =>   CDf =  0.00883    CDp =  0.00839

 Side 1  free  transition at x/c =  0.2378   45
 Side 2  free  transition at x/c =  0.1752   31

  22   rms: 0.2818E+00   max: -.6055E+01   C at   45  1   RLX: 0.083
       a =  3.000      CL =  0.6916
      Cm = -0.1218     CD =  0.01721   =>   CDf =  0.00879    CDp =  0.00843

 Side 1  free  transition at x/c =  0.2491   46
 Side 2  free  transition at x/c =  0.1751   31

  23   rms: 0.2052E+00   max: -.4589E+01   C at   46  1   RLX: 0.109
       a =  3.000      CL =  0.6893
      Cm = -0.1210     CD =  0.01720   =>   CDf =  0.00874    CDp =  0.00846

 Side 1  free  transition at x/c =  0.2626   47
 Side 2  free  transition at x/c =  0.1750   31

  24   rms: 0.1514E+00   max: -.3408E+01   C at   47  1   RLX: 0.147
       a =  3.000      CL =  0.6866
      Cm = -0.1201     CD =  0.01718   =>   CDf =  0.00867    CDp =  0.00850

 Side 1  free  transition at x/c =  0.2775   47
 Side 2  free  transition at x/c =  0.1749   31

  25   rms: 0.1870E+00   max: -.3860E+01   C at   47  1   RLX: 0.130
       a =  3.000      CL =  0.6846
      Cm = -0.1195     CD =  0.01717   =>   CDf =  0.00860    CDp =  0.00856
 VISCAL:  Convergence failed
 Calculating wake trajectory ...
 Calculating source influence matrix ...

 Solving BL system ...

 Side 1  free  transition at x/c =  0.2888   48
 Side 2  free  transition at x/c =  0.1748   31

   1   rms: 0.2596E+01   max: 0.5522E+02   C at   48  1   RLX: 0.027
       a =  4.000      CL =  0.6808
      Cm = -0.1185     CD =  0.01756   =>   CDf =  0.00854    CDp =  0.00902

 Side 1  free  transition at x/c =  0.2566   46
 Side 2  free  transition at x/c =  0.1748   31

   2   rms: 0.2815E+01   max: 0.5955E+02   C at   46  1   RLX: 0.025
       a =  4.000      CL =  0.6775
      Cm = -0.1176     CD =  0.01788   =>   CDf =  0.00869    CDp =  0.00919

 Side 1  free  transition at x/c =  0.2280   44
 Side 2  free  transition at x/c =  0.1748   31

   3   rms: 0.3102E+01   max: 0.6367E+02   C at   44  1   RLX: 0.024
       a =  4.000      CL =  0.6746
      Cm = -0.1168     CD =  0.01816   =>   CDf =  0.00881    CDp =  0.00935

 Side 1  free  transition at x/c =  0.2020   43
 Side 2  free  transition at x/c =  0.1748   31

   4   rms: 0.2778E+01   max: 0.6070E+02   C at   43  1   RLX: 0.025
       a =  4.000      CL =  0.6717
      Cm = -0.1160     CD =  0.01844   =>   CDf =  0.00891    CDp =  0.00953

 Side 1  free  transition at x/c =  0.1746   41
 Side 2  free  transition at x/c =  0.1748   31

   5   rms: 0.3230E+01   max: 0.6860E+02   C at   41  1   RLX: 0.022
       a =  4.000      CL =  0.6692
      Cm = -0.1153     CD =  0.01867   =>   CDf =  0.00901    CDp =  0.00967

 Side 1  free  transition at x/c =  0.1505   40
 Side 2  free  transition at x/c =  0.1748   31

   6   rms: 0.2843E+01   max: 0.6380E+02   C at   40  1   RLX: 0.024
       a =  4.000      CL =  0.6666
      Cm = -0.1146     CD =  0.01892   =>   CDf =  0.00909    CDp =  0.00983

 Side 1  free  transition at x/c =  0.1242   38
 Side 2  free  transition at x/c =  0.1749   31

   7   rms: 0.3176E+01   max: 0.6977E+02   C at   38  1   RLX: 0.021
       a =  4.000      CL =  0.6643
      Cm = -0.1139     CD =  0.01912   =>   CDf =  0.00917    CDp =  0.00996

 Side 1  free  transition at x/c =  0.1010   36
 Side 2  free  transition at x/c =  0.1749   31

   8   rms: 0.3530E+01   max: 0.7564E+02   C at   36  1   RLX: 0.020
       a =  4.000      CL =  0.6623
      Cm = -0.1134     CD =  0.01930   =>   CDf =  0.00923    CDp =  0.01007

 Side 1  free  transition at x/c =  0.0812   33
 Side 2  free  transition at x/c =  0.1749   31

   9   rms: 0.4728E+01   max: 0.8881E+02   C at   33  1   RLX: 0.017
       a =  4.000      CL =  0.6608
      Cm = -0.1129     CD =  0.01944   =>   CDf =  0.00929    CDp =  0.01015

 Side 1  free  transition at x/c =  0.0717   32
 Side 2  free  transition at x/c =  0.1749   31

  10   rms: 0.3555E+01   max: 0.6992E+02   C at   32  1   RLX: 0.021
       a =  4.000      CL =  0.6594
      Cm = -0.1123     CD =  0.01959   =>   CDf =  0.00932    CDp =  0.01026

 Side 1  free  transition at x/c =  0.0627   31
 Side 2  free  transition at x/c =  0.1749   31

  11   rms: 0.1839E+01   max: 0.3859E+02   C at   31  1   RLX: 0.039
       a =  4.000      CL =  0.6583
      Cm = -0.1115     CD =  0.01978   =>   CDf =  0.00936    CDp =  0.01042

 Side 1  free  transition at x/c =  0.0544   30
 Side 2  free  transition at x/c =  0.1750   31

  12   rms: 0.6830E+00   max: 0.1377E+02   C at   30  1   RLX: 0.109
       a =  4.000      CL =  0.6586
      Cm = -0.1098     CD =  0.02017   =>   CDf =  0.00940    CDp =  0.01077

 Side 1  free  transition at x/c =  0.0459   28
 Side 2  free  transition at x/c =  0.1755   31

  13   rms: 0.1962E+00   max: 0.2084E+01   T at   28  1   RLX: 0.720
       a =  4.000      CL =  0.6796
      Cm = -0.1025     CD =  0.02137   =>   CDf =  0.00923    CDp =  0.01215

 MRCHDU: Convergence failed at  29  side 1    Res =  0.3155E+02
 Side 1  free  transition at x/c =  0.0315   26
 Side 2  free  transition at x/c =  0.1791   30

  14   rms: 0.1025E+00   max: -.8392E+00   D at   29  1   RLX: 0.596
       a =  4.000      CL =  0.6776
      Cm = -0.1022     CD =  0.02207   =>   CDf =  0.00916    CDp =  0.01292

 Side 1  free  transition at x/c =  0.0316   26
 Side 2  free  transition at x/c =  0.1802   30

  15   rms: 0.8371E-01   max: -.8038E+00   D at   29  1   RLX: 0.622
       a =  4.000      CL =  0.6842
      Cm = -0.1009     CD =  0.02144   =>   CDf =  0.00923    CDp =  0.01221

 Side 1  free  transition at x/c =  0.0308   26
 Side 2  free  transition at x/c =  0.1813   30

  16   rms: 0.3299E-01   max: -.4744E+00   D at   29  1
       a =  4.000      CL =  0.6819
      Cm = -0.0994     CD =  0.02150   =>   CDf =  0.00935    CDp =  0.01215

 Side 1  free  transition at x/c =  0.0304   26
 Side 2  free  transition at x/c =  0.1814   30

  17   rms: 0.8883E-02   max: -.1042E+00   D at   28  1
       a =  4.000      CL =  0.6788
      Cm = -0.0990     CD =  0.02169   =>   CDf =  0.00942    CDp =  0.01227

 Side 1  free  transition at x/c =  0.0303   26
 Side 2  free  transition at x/c =  0.1813   30

  18   rms: 0.5327E-03   max: -.6590E-02   D at   28  1
       a =  4.000      CL =  0.6787
      Cm = -0.0990     CD =  0.02169   =>   CDf =  0.00941    CDp =  0.01228

 Side 1  free  transition at x/c =  0.0303   26
 Side 2  free  transition at x/c =  0.1813   30

  19   rms: 0.7524E-05   max: -.4928E-04   D at   32  2
       a =  4.000      CL =  0.6786
      Cm = -0.0990     CD =  0.02169   =>   CDf =  0.00941    CDp =  0.01228

 Point added to stored polar  1
 Point written to save file  000272M0.04.log                                 
 Dump file unspecified or not available
 Calculating wake trajectory ...
 Calculating source influence matrix ...

 Solving BL system ...

 Side 1  free  transition at x/c =  0.0303   26
 Side 2  free  transition at x/c =  0.1813   30

   1   rms: 0.2405E+00   max: 0.2129E+01   T at   26  1   RLX: 0.705
       a =  5.000      CL =  0.6876
      Cm = -0.0893     CD =  0.02478   =>   CDf =  0.00941    CDp =  0.01537

 MRCHDU: Convergence failed at  26  side 1    Res =  0.1704E+02
 MRCHDU: Convergence failed at  27  side 1    Res =  0.4513E+03
 MRCHDU: Convergence failed at  28  side 1    Res =  0.2868E+02
 MRCHDU: Convergence failed at  29  side 1    Res =  0.6813E+01
 MRCHDU: Convergence failed at  30  side 1    Res =  0.5512E+01
 MRCHDU: Convergence failed at  31  side 1    Res =  0.5952E+01
 MRCHDU: Convergence failed at  32  side 1    Res =  0.6977E+01
 MRCHDU: Convergence failed at  33  side 1    Res =  0.8301E+01
 MRCHDU: Convergence failed at  34  side 1    Res =  0.1011E+02
 MRCHDU: Convergence failed at  35  side 1    Res =  0.1065E+02
 MRCHDU: Convergence failed at  36  side 1    Res =  0.9698E+01
 MRCHDU: Convergence failed at  37  side 1    Res =  0.7107E+01
 MRCHDU: Convergence failed at  38  side 1    Res =  0.5281E+01
 MRCHDU: Convergence failed at  39  side 1    Res =  0.1701E+02
 Side 1  free  transition at x/c =  0.0261   24
 Side 2  free  transition at x/c =  0.1871   31

   2   rms: 0.1356E+00   max: 0.1245E+01   T at   24  1   RLX: 0.676
       a =  5.000      CL =  0.7414
      Cm = -0.0892     CD =  0.02376   =>   CDf =  0.00847    CDp =  0.01530

 Side 1  free  transition at x/c =  0.0235   25
 Side 2  free  transition at x/c =  0.1901   30

   3   rms: 0.1654E+00   max: -.9134E+00   D at   31  1   RLX: 0.547
       a =  5.000      CL =  0.6983
      Cm = -0.0925     CD =  0.02715   =>   CDf =  0.00989    CDp =  0.01726

 Side 1  free  transition at x/c =  0.0244   24
 Side 2  free  transition at x/c =  0.1880   31

   4   rms: 0.1536E+00   max: -.1134E+01   D at   29  1   RLX: 0.441
       a =  5.000      CL =  0.7144
      Cm = -0.0903     CD =  0.02584   =>   CDf =  0.00898    CDp =  0.01686

 Side 1  free  transition at x/c =  0.0242   25
 Side 2  free  transition at x/c =  0.1892   30

   5   rms: 0.7748E-01   max: -.9017E+00   D at   31  1   RLX: 0.554
       a =  5.000      CL =  0.7275
      Cm = -0.0909     CD =  0.02497   =>   CDf =  0.00920    CDp =  0.01577

 Side 1  free  transition at x/c =  0.0238   25
 Side 2  free  transition at x/c =  0.1899   30

   6   rms: 0.3964E-01   max: -.6098E+00   D at   31  1   RLX: 0.820
       a =  5.000      CL =  0.7271
      Cm = -0.0911     CD =  0.02506   =>   CDf =  0.00923    CDp =  0.01582

 Side 1  free  transition at x/c =  0.0237   25
 Side 2  free  transition at x/c =  0.1898   30

   7   rms: 0.1661E-01   max: -.2404E+00   D at   31  1
       a =  5.000      CL =  0.7238
      Cm = -0.0908     CD =  0.02526   =>   CDf =  0.00927    CDp =  0.01599

 Side 1  free  transition at x/c =  0.0237   25
 Side 2  free  transition at x/c =  0.1896   30

   8   rms: 0.1440E-02   max: 0.5657E-02   U at   31  1
       a =  5.000      CL =  0.7238
      Cm = -0.0908     CD =  0.02525   =>   CDf =  0.00928    CDp =  0.01597

 Side 1  free  transition at x/c =  0.0237   25
 Side 2  free  transition at x/c =  0.1896   30

   9   rms: 0.1509E-04   max: -.1821E-03   D at   31  1
       a =  5.000      CL =  0.7238
      Cm = -0.0908     CD =  0.02525   =>   CDf =  0.00928    CDp =  0.01597

 Point added to stored polar  1
 Point written to save file  000272M0.04.log                                 
 Dump file unspecified or not available
 Calculating wake trajectory ...
 Calculating source influence matrix ...

 Solving BL system ...

 Side 1  free  transition at x/c =  0.0237   25
 Side 2  free  transition at x/c =  0.1896   30

   1   rms: 0.1717E+00   max: 0.9684E+00   T at   25  1
       a =  6.000      CL =  0.7524
      Cm = -0.0825     CD =  0.03105   =>   CDf =  0.00928    CDp =  0.02177

 MRCHDU: Convergence failed at  25  side 1    Res =  0.5778E+02
 MRCHDU: Convergence failed at  26  side 1    Res =  0.1104E+03
 MRCHDU: Convergence failed at  27  side 1    Res =  0.4393E+02
 MRCHDU: Convergence failed at  28  side 1    Res =  0.2658E+02
 MRCHDU: Convergence failed at  29  side 1    Res =  0.2042E+02
 MRCHDU: Convergence failed at  30  side 1    Res =  0.2267E+02
 MRCHDU: Convergence failed at  31  side 1    Res =  0.2849E+02
 MRCHDU: Convergence failed at  32  side 1    Res =  0.4039E+02
 MRCHDU: Convergence failed at  33  side 1    Res =  0.5720E+02
 MRCHDU: Convergence failed at  34  side 1    Res =  0.7445E+02
 MRCHDU: Convergence failed at  35  side 1    Res =  0.8189E+02
 MRCHDU: Convergence failed at  36  side 1    Res =  0.9856E+02
 MRCHDU: Convergence failed at  37  side 1    Res =  0.1119E+03
 MRCHDU: Convergence failed at  38  side 1    Res =  0.1104E+03
 MRCHDU: Convergence failed at  39  side 1    Res =  0.9302E+02
 MRCHDU: Convergence failed at  40  side 1    Res =  0.8217E+02
 MRCHDU: Convergence failed at  41  side 1    Res =  0.6731E+02
 MRCHDU: Convergence failed at  42  side 1    Res =  0.5459E+02
 MRCHDU: Convergence failed at  43  side 1    Res =  0.4962E+02
 MRCHDU: Convergence failed at  44  side 1    Res =  0.3879E+02
 MRCHDU: Convergence failed at  45  side 1    Res =  0.3150E+02
 MRCHDU: Convergence failed at  46  side 1    Res =  0.2516E+02
 MRCHDU: Convergence failed at  47  side 1    Res =  0.2019E+02
 MRCHDU: Convergence failed at  48  side 1    Res =  0.1805E+02
 MRCHDU: Convergence failed at  49  side 1    Res =  0.1625E+02
 MRCHDU: Convergence failed at  50  side 1    Res =  0.1488E+02
 MRCHDU: Convergence failed at  51  side 1    Res =  0.8153E+01
 MRCHDU: Convergence failed at  52  side 1    Res =  0.8400E+01
 MRCHDU: Convergence failed at  53  side 1    Res =  0.8662E+01
 MRCHDU: Convergence failed at  54  side 1    Res =  0.8965E+01
 MRCHDU: Convergence failed at  55  side 1    Res =  0.9335E+01
 MRCHDU: Convergence failed at  56  side 1    Res =  0.9817E+01
 MRCHDU: Convergence failed at  57  side 1    Res =  0.1043E+02
 MRCHDU: Convergence failed at  58  side 1    Res =  0.1124E+02
 MRCHDU: Convergence failed at  59  side 1    Res =  0.1234E+02
 MRCHDU: Convergence failed at  60  side 1    Res =  0.1359E+02
 MRCHDU: Convergence failed at  61  side 1    Res =  0.1554E+02
 MRCHDU: Convergence failed at  62  side 1    Res =  0.1794E+02
 MRCHDU: Convergence failed at  63  side 1    Res =  0.2152E+02
 MRCHDU: Convergence failed at  64  side 1    Res =  0.2705E+02
 MRCHDU: Convergence failed at  65  side 1    Res =  0.3691E+02
 MRCHDU: Convergence failed at  66  side 1    Res =  0.3314E+02
 MRCHDU: Convergence failed at  67  side 1    Res =  0.3820E+02
 MRCHDU: Convergence failed at  68  side 1    Res =  0.4899E+02
 MRCHDU: Convergence failed at  69  side 1    Res =  0.8076E+02
 MRCHDU: Convergence failed at  70  side 1    Res =  0.8288E+02
 MRCHDU: Convergence failed at  71  side 1    Res =  0.3836E+02
 MRCHDU: Convergence failed at  72  side 1    Res =  0.7784E+02
 MRCHDU: Convergence failed at  73  side 1    Res =  0.1287E+03
 MRCHDU: Convergence failed at  74  side 1    Res =  0.7547E+02
 MRCHDU: Convergence failed at  75  side 1    Res =  0.3560E+02
 MRCHDU: Convergence failed at  76  side 1    Res =  0.1050E+03
 MRCHDU: Convergence failed at  77  side 1    Res =  0.1472E+03
 MRCHDU: Convergence failed at  78  side 1    Res =  0.3963E+02
 MRCHDU: Convergence failed at  79  side 1    Res =  0.3609E+02
 MRCHDU: Convergence failed at  80  side 1    Res =  0.3380E+02
 MRCHDU: Convergence failed at  81  side 1    Res =  0.9572E+02
 MRCHDU: Convergence failed at  82  side 1    Res =  0.1494E+03
 MRCHDU: Convergence failed at  83  side 1    Res =  0.4298E+02
 MRCHDU: Convergence failed at  84  side 1    Res =  0.3483E+02
 MRCHDU: Convergence failed at  85  side 1    Res =  0.3585E+02
 MRCHDU: Convergence failed at  86  side 1    Res =  0.5041E+02
 MRCHDU: Convergence failed at  87  side 1    Res =  0.8138E+02
 MRCHDU: Convergence failed at  88  side 1    Res =  0.1173E+03
 Side 1  free  transition at x/c =  0.0218   24
 Side 2  free  transition at x/c =  0.1964   30

   2   rms: 0.1011E+01   max: 0.4971E+01   D at   88  1   RLX: 0.302
       a =  6.000      CL =  1.3428
      Cm = -0.3279     CD =  0.01612   =>   CDf =  0.00334    CDp =  0.01278

 MRCHDU: Convergence failed at  41  side 1    Res =  0.6900E-01
 MRCHDU: Convergence failed at  81  side 2    Res =  0.1577E+01
 MRCHDU: Convergence failed at  82  side 2    Res =  0.2433E+01
 MRCHDU: Convergence failed at  83  side 2    Res =  0.1094E+02
 MRCHDU: Convergence failed at  84  side 2    Res =  0.4141E+01
 Side 1  free  transition at x/c =  0.0228   24
 Side 2  free  transition at x/c =  0.1907   30

   3   rms: 0.5125E+00   max: -.1739E+01   D at   41  1   RLX: 0.287
       a =  6.000      CL =  0.7563
      Cm = -0.1572     CD =  0.07547   =>   CDf =  0.00427    CDp =  0.07120

 MRCHDU: Convergence failed at  41  side 1    Res =  0.9219E-01
 Side 1  free  transition at x/c =  0.0247   25
 Side 2  free  transition at x/c =  0.1943   30

   4   rms: 0.4489E+00   max: -.1418E+01   D at   40  1   RLX: 0.353
       a =  6.000      CL =  0.6206
      Cm = -0.1125     CD =  0.07442   =>   CDf =  0.00481    CDp =  0.06962

 Side 1  free  transition at x/c =  0.0279   25
 Side 2  free  transition at x/c =  0.1961   31

   5   rms: 0.9267E+00   max: -.4108E+01   D at   39  1   RLX: 0.122
       a =  6.000      CL =  0.5523
      Cm = -0.0758     CD =  0.07820   =>   CDf =  0.00473    CDp =  0.07347

 Side 1  free  transition at x/c =  0.0277   26
 Side 2  free  transition at x/c =  0.1994   30

   6   rms: 0.1354E+02   max: 0.4452E+02   D at   31  1   RLX: 0.015
       a =  6.000      CL =  0.4313
      Cm = -0.0736     CD =  0.10600   =>   CDf =  0.00526    CDp =  0.10073

 Side 1  free  transition at x/c =  0.0332   26
 Side 2  free  transition at x/c =  0.1897   31

   7   rms: 0.1060E+01   max: -.6400E+01   D at   36  1   RLX: 0.078
       a =  6.000      CL =  0.3942
      Cm = -0.0564     CD =  0.09183   =>   CDf =  0.00481    CDp =  0.08702

 Side 1  free  transition at x/c =  0.0376   27
 Side 2  free  transition at x/c =  0.1910   31

   8   rms: 0.8909E+02   max: 0.9951E+03   T at   27  1   RLX: 0.001
       a =  6.000      CL =  0.3722
      Cm = -0.0431     CD =  0.09276   =>   CDf =  0.00506    CDp =  0.08770

 Side 1  free  transition at x/c =  0.0319   26
 Side 2  free  transition at x/c =  0.1919   31

   9   rms: 0.1975E+01   max: 0.1004E+02   T at   26  1   RLX: 0.074
       a =  6.000      CL =  0.4549
      Cm = -0.0452     CD =  0.07566   =>   CDf =  0.00475    CDp =  0.07091

 Side 1  free  transition at x/c =  0.0273   26
 Side 2  free  transition at x/c =  0.1977   30

  10   rms: 0.1413E+02   max: -.6914E+02   T at   26  1   RLX: 0.007
       a =  6.000      CL =  0.4109
      Cm = -0.0500     CD =  0.09340   =>   CDf =  0.00535    CDp =  0.08805

 Side 1  free  transition at x/c =  0.0315   26
 Side 2  free  transition at x/c =  0.1922   31

  11   rms: 0.6554E+01   max: -.3065E+02   D at   27  1   RLX: 0.016
       a =  6.000      CL =  0.4330
      Cm = -0.0396     CD =  0.07913   =>   CDf =  0.00479    CDp =  0.07434

 Side 1  free  transition at x/c =  0.0294   26
 Side 2  free  transition at x/c =  0.1966   30

  12   rms: 0.1117E+02   max: 0.7309E+02   T at   26  1   RLX: 0.014
       a =  6.000      CL =  0.5056
      Cm = -0.0318     CD =  0.06433   =>   CDf =  0.00515    CDp =  0.05918

 Side 1  free  transition at x/c =  0.0231   24
 Side 2  free  transition at x/c =  0.2058   31

  13   rms: 0.9093E+01   max: 0.4583E+02   D at   28  1   RLX: 0.017
       a =  6.000      CL =  0.5805
      Cm = -0.0365     CD =  0.05511   =>   CDf =  0.00508    CDp =  0.05002

 MRCHDU: Convergence failed at  60  side 1    Res =  0.1804E+01
 MRCHDU: Convergence failed at  61  side 1    Res =  0.1072E+01
 MRCHDU: Convergence failed at  62  side 1    Res =  0.2356E+03
 Side 1  free  transition at x/c =  0.0218   25
 Side 2  free  transition at x/c =  0.2093   30

  14   rms: 0.1419E+01   max: -.7313E+01   D at   63  1   RLX: 0.068
       a =  6.000      CL =  0.7082
      Cm = -0.0729     CD =  0.05011   =>   CDf =  0.00509    CDp =  0.04502

 Side 1  free  transition at x/c =  0.0212   25
 Side 2  free  transition at x/c =  0.2118   30

  15   rms: 0.1037E+01   max: -.5324E+01   D at   63  1   RLX: 0.094
       a =  6.000      CL =  0.7144
      Cm = -0.0583     CD =  0.04635   =>   CDf =  0.00551    CDp =  0.04084

 Side 1  free  transition at x/c =  0.0208   25
 Side 2  free  transition at x/c =  0.2140   30

  16   rms: 0.7138E+00   max: -.3073E+01   D at   63  1   RLX: 0.163
       a =  6.000      CL =  0.7391
      Cm = -0.0576     CD =  0.04084   =>   CDf =  0.00599    CDp =  0.03485

 Side 1  free  transition at x/c =  0.0206   25
 Side 2  free  transition at x/c =  0.2154   30

  17   rms: 0.4724E+00   max: -.1714E+01   D at   46  1   RLX: 0.292
       a =  6.000      CL =  0.7440
      Cm = -0.0640     CD =  0.03682   =>   CDf =  0.00665    CDp =  0.03017

 Side 1  free  transition at x/c =  0.0208   25
 Side 2  free  transition at x/c =  0.2124   30

  18   rms: 0.5451E+00   max: -.3605E+01   D at   45  1   RLX: 0.139
       a =  6.000      CL =  0.7345
      Cm = -0.0717     CD =  0.03978   =>   CDf =  0.00747    CDp =  0.03231

 MRCHDU: Convergence failed at  44  side 1    Res =  0.2449E+02
 Side 1  free  transition at x/c =  0.0211   25
 Side 2  free  transition at x/c =  0.2090   30

  19   rms: 0.2566E+00   max: -.9995E+00   D at   66  1   RLX: 0.432
       a =  6.000      CL =  0.7376
      Cm = -0.0728     CD =  0.03576   =>   CDf =  0.00841    CDp =  0.02735

 Side 1  free  transition at x/c =  0.0216   25
 Side 2  free  transition at x/c =  0.2047   30

  20   rms: 0.1753E+00   max: -.9573E+00   D at   40  1   RLX: 0.522
       a =  6.000      CL =  0.7359
      Cm = -0.0770     CD =  0.03348   =>   CDf =  0.00886    CDp =  0.02462

 Side 1  free  transition at x/c =  0.0218   24
 Side 2  free  transition at x/c =  0.2018   31

  21   rms: 0.1065E+00   max: -.6006E+00   D at   39  1   RLX: 0.832
       a =  6.000      CL =  0.7437
      Cm = -0.0804     CD =  0.03093   =>   CDf =  0.00893    CDp =  0.02200

 Side 1  free  transition at x/c =  0.0220   24
 Side 2  free  transition at x/c =  0.1995   30

  22   rms: 0.3357E-01   max: -.1553E+00   D at   70  1
       a =  6.000      CL =  0.7564
      Cm = -0.0826     CD =  0.03042   =>   CDf =  0.00915    CDp =  0.02128

 Side 1  free  transition at x/c =  0.0219   24
 Side 2  free  transition at x/c =  0.1987   30

  23   rms: 0.2430E-02   max: 0.1991E-01   D at   73  1
       a =  6.000      CL =  0.7566
      Cm = -0.0828     CD =  0.03061   =>   CDf =  0.00920    CDp =  0.02141

 Side 1  free  transition at x/c =  0.0219   24
 Side 2  free  transition at x/c =  0.1986   30

  24   rms: 0.6636E-04   max: 0.3791E-03   D at   73  1
       a =  6.000      CL =  0.7566
      Cm = -0.0828     CD =  0.03061   =>   CDf =  0.00920    CDp =  0.02141

 Point added to stored polar  1
 Point written to save file  000272M0.04.log                                 
 Dump file unspecified or not available
 Calculating wake trajectory ...
 Calculating source influence matrix ...

 Solving BL system ...

 Side 1  free  transition at x/c =  0.0219   24
 Side 2  free  transition at x/c =  0.1986   30

   1   rms: 0.1508E+00   max: -.5954E+00   T at   30  2   RLX: 0.840
       a =  7.000      CL =  0.7908
      Cm = -0.0765     CD =  0.03521   =>   CDf =  0.00896    CDp =  0.02625

 Side 1  free  transition at x/c =  0.0219   25
 Side 2  free  transition at x/c =  0.2104   30

   2   rms: 0.9886E-01   max: 0.1087E+01   D at   30  2
       a =  7.000      CL =  0.8088
      Cm = -0.0751     CD =  0.03476   =>   CDf =  0.00912    CDp =  0.02564

 Side 1  free  transition at x/c =  0.0222   25
 Side 2  free  transition at x/c =  0.2109   30

   3   rms: 0.2234E-01   max: 0.1660E+00   D at   31  2
       a =  7.000      CL =  0.8104
      Cm = -0.0752     CD =  0.03474   =>   CDf =  0.00911    CDp =  0.02562

 Side 1  free  transition at x/c =  0.0222   25
 Side 2  free  transition at x/c =  0.2091   30

   4   rms: 0.8484E-03   max: 0.9270E-02   D at   31  2
       a =  7.000      CL =  0.8105
      Cm = -0.0752     CD =  0.03473   =>   CDf =  0.00909    CDp =  0.02564

 Side 1  free  transition at x/c =  0.0222   25
 Side 2  free  transition at x/c =  0.2090   30

   5   rms: 0.1015E-04   max: 0.8676E-04   D at   31  2
       a =  7.000      CL =  0.8105
      Cm = -0.0752     CD =  0.03473   =>   CDf =  0.00909    CDp =  0.02564

 Point added to stored polar  1
 Point written to save file  000272M0.04.log                                 
 Dump file unspecified or not available
 Calculating wake trajectory ...
 Calculating source influence matrix ...

 Solving BL system ...

 Side 1  free  transition at x/c =  0.0222   25
 Side 2  free  transition at x/c =  0.2090   30

   1   rms: 0.1698E+00   max: -.6748E+00   T at   30  2   RLX: 0.741
       a =  8.000      CL =  0.8778
      Cm = -0.0699     CD =  0.03640   =>   CDf =  0.00886    CDp =  0.02753

 Side 1  free  transition at x/c =  0.0218   26
 Side 2  free  transition at x/c =  0.2183   30

   2   rms: 0.1009E+00   max: -.5368E+00   T at   30  2   RLX: 0.931
       a =  8.000      CL =  0.9109
      Cm = -0.0697     CD =  0.03657   =>   CDf =  0.00904    CDp =  0.02753

 Side 1  free  transition at x/c =  0.0211   26
 Side 2  free  transition at x/c =  0.2261   30

   3   rms: 0.3404E-01   max: 0.2101E+00   T at   26  1
       a =  8.000      CL =  0.9092
      Cm = -0.0697     CD =  0.03691   =>   CDf =  0.00877    CDp =  0.02814

 Side 1  free  transition at x/c =  0.0205   27
 Side 2  free  transition at x/c =  0.2235   29

   4   rms: 0.1173E-01   max: -.8159E-01   T at   27  1
       a =  8.000      CL =  0.9136
      Cm = -0.0698     CD =  0.03681   =>   CDf =  0.00907    CDp =  0.02774

 Side 1  free  transition at x/c =  0.0207   27
 Side 2  free  transition at x/c =  0.2239   29

   5   rms: 0.1845E-02   max: 0.2183E-01   T at   27  1
       a =  8.000      CL =  0.9139
      Cm = -0.0698     CD =  0.03684   =>   CDf =  0.00907    CDp =  0.02777

 Side 1  free  transition at x/c =  0.0207   27
 Side 2  free  transition at x/c =  0.2239   29

   6   rms: 0.3263E-03   max: -.1710E-02   D at   79  1
       a =  8.000      CL =  0.9141
      Cm = -0.0698     CD =  0.03683   =>   CDf =  0.00908    CDp =  0.02776

 Side 1  free  transition at x/c =  0.0207   27
 Side 2  free  transition at x/c =  0.2239   29

   7   rms: 0.2409E-04   max: 0.2299E-03   T at   27  1
       a =  8.000      CL =  0.9141
      Cm = -0.0698     CD =  0.03684   =>   CDf =  0.00908    CDp =  0.02776

 Point added to stored polar  1
 Point written to save file  000272M0.04.log                                 
 Dump file unspecified or not available
 Calculating wake trajectory ...
 Calculating source influence matrix ...

 Solving BL system ...

 Side 1  free  transition at x/c =  0.0207   27
 Side 2  free  transition at x/c =  0.2239   29

   1   rms: 0.2623E+00   max: 0.3153E+01   T at   27  1   RLX: 0.476
       a =  9.000      CL =  0.9406
      Cm = -0.0681     CD =  0.03857   =>   CDf =  0.00908    CDp =  0.02949

 MRCHDU: Convergence failed at  27  side 1    Res =  0.2242E+02
 MRCHDU: Convergence failed at  28  side 1    Res =  0.1641E+03
 MRCHDU: Convergence failed at  29  side 1    Res =  0.3326E+02
 MRCHDU: Convergence failed at  30  side 1    Res =  0.7605E+02
 MRCHDU: Convergence failed at  31  side 1    Res =  0.6083E+02
 MRCHDU: Convergence failed at  32  side 1    Res =  0.7550E+02
 MRCHDU: Convergence failed at  33  side 1    Res =  0.1208E+03
 MRCHDU: Convergence failed at  34  side 1    Res =  0.1083E+03
 MRCHDU: Convergence failed at  35  side 1    Res =  0.4838E+02
 MRCHDU: Convergence failed at  36  side 1    Res =  0.3990E+02
 MRCHDU: Convergence failed at  37  side 1    Res =  0.1306E+03
 MRCHDU: Convergence failed at  38  side 1    Res =  0.2716E+03
 MRCHDU: Convergence failed at  39  side 1    Res =  0.3215E+03
 MRCHDU: Convergence failed at  40  side 1    Res =  0.1823E+03
 MRCHDU: Convergence failed at  41  side 1    Res =  0.1077E+03
 MRCHDU: Convergence failed at  42  side 1    Res =  0.8234E+02
 MRCHDU: Convergence failed at  43  side 1    Res =  0.8047E+02
 MRCHDU: Convergence failed at  44  side 1    Res =  0.8066E+02
 MRCHDU: Convergence failed at  45  side 1    Res =  0.4008E+03
 MRCHDU: Convergence failed at  46  side 1    Res =  0.6629E+02
 MRCHDU: Convergence failed at  47  side 1    Res =  0.6092E+02
 MRCHDU: Convergence failed at  48  side 1    Res =  0.3476E+02
 MRCHDU: Convergence failed at  49  side 1    Res =  0.3759E+02
 MRCHDU: Convergence failed at  50  side 1    Res =  0.6610E+02
 MRCHDU: Convergence failed at  51  side 1    Res =  0.5096E+02
 MRCHDU: Convergence failed at  52  side 1    Res =  0.6239E+02
 MRCHDU: Convergence failed at  53  side 1    Res =  0.5347E+02
 MRCHDU: Convergence failed at  54  side 1    Res =  0.5458E+02
 MRCHDU: Convergence failed at  55  side 1    Res =  0.1857E+03
 MRCHDU: Convergence failed at  56  side 1    Res =  0.8497E+02
 MRCHDU: Convergence failed at  57  side 1    Res =  0.8426E+02
 MRCHDU: Convergence failed at  58  side 1    Res =  0.1477E+03
 MRCHDU: Convergence failed at  59  side 1    Res =  0.7160E+02
 MRCHDU: Convergence failed at  60  side 1    Res =  0.8419E+02
 MRCHDU: Convergence failed at  61  side 1    Res =  0.1011E+03
 MRCHDU: Convergence failed at  62  side 1    Res =  0.1035E+03
 MRCHDU: Convergence failed at  63  side 1    Res =  0.1234E+03
 MRCHDU: Convergence failed at  64  side 1    Res =  0.6151E+02
 MRCHDU: Convergence failed at  65  side 1    Res =  0.5349E+02
 MRCHDU: Convergence failed at  66  side 1    Res =  0.2204E+04
 MRCHDU: Convergence failed at  67  side 1    Res =  0.9465E+02
 MRCHDU: Convergence failed at  68  side 1    Res =  0.1484E+03
 MRCHDU: Convergence failed at  69  side 1    Res =  0.7917E+03
 MRCHDU: Convergence failed at  70  side 1    Res =  0.1716E+05
 MRCHDU: Convergence failed at  71  side 1    Res =  0.1023E+03
 MRCHDU: Convergence failed at  72  side 1    Res =  0.1249E+03
 MRCHDU: Convergence failed at  73  side 1    Res =  0.7327E+02
 MRCHDU: Convergence failed at  74  side 1    Res =  0.5942E+02
 MRCHDU: Convergence failed at  75  side 1    Res =  0.7519E+02
 MRCHDU: Convergence failed at  76  side 1    Res =  0.9280E+02
 MRCHDU: Convergence failed at  77  side 1    Res =  0.1570E+03
 MRCHDU: Convergence failed at  78  side 1    Res =  0.8047E+02
 MRCHDU: Convergence failed at  79  side 1    Res =  0.6759E+02
 MRCHDU: Convergence failed at  80  side 1    Res =  0.4316E+04
 MRCHDU: Convergence failed at  81  side 1    Res =  0.1124E+03
 MRCHDU: Convergence failed at  82  side 1    Res =  0.5303E+02
 MRCHDU: Convergence failed at  83  side 1    Res =  0.1571E+03
 MRCHDU: Convergence failed at  84  side 1    Res =  0.7866E+02
 MRCHDU: Convergence failed at  85  side 1    Res =  0.1506E+03
 MRCHDU: Convergence failed at  86  side 1    Res =  0.1578E+03
 MRCHDU: Convergence failed at  87  side 1    Res =  0.3709E+03
 MRCHDU: Convergence failed at  88  side 1    Res =  0.3552E+03
 MRCHDU: Convergence failed at  89  side 1    Res =  0.3428E+03
 MRCHDU: Convergence failed at  90  side 1    Res =  0.3326E+03
 MRCHDU: Convergence failed at  91  side 1    Res =  0.3234E+03
 Side 1  free  transition at x/c =  0.0185   26
 Side 2  free  transition at x/c =  0.2307   29

   2   rms: 0.1545E+01   max: 0.7445E+01   D at   77  2   RLX: 0.190
       a =  9.000      CL =  2.5036
      Cm = -0.6082     CD =  0.01400   =>   CDf =  0.00331    CDp =  0.01070

 MRCHDU: Convergence failed at  77  side 2    Res =  0.5256E+01
 MRCHDU: Convergence failed at  78  side 2    Res =  0.6467E+01
 MRCHDU: Convergence failed at  79  side 2    Res =  0.2346E+02
 MRCHDU: Convergence failed at  80  side 2    Res =  0.4271E+01
 MRCHDU: Convergence failed at  81  side 2    Res =  0.2827E+01
 MRCHDU: Convergence failed at  82  side 2    Res =  0.3425E+01
 MRCHDU: Convergence failed at  83  side 2    Res =  0.4190E+01
 MRCHDU: Convergence failed at  84  side 2    Res =  0.7224E+02
 MRCHDU: Convergence failed at  85  side 2    Res =  0.1599E+02
 MRCHDU: Convergence failed at  86  side 2    Res =  0.3539E+01
 Side 1  free  transition at x/c =  0.0199   26
 Side 2  free  transition at x/c =  0.2238   29

   3   rms: 0.7791E+00   max: -.2886E+01   D at   32  2   RLX: 0.173
       a =  9.000      CL =  1.5308
      Cm = -0.3241     CD =  0.10521   =>   CDf =  0.00410    CDp =  0.10111

 MRCHDU: Convergence failed at  31  side 2    Res =  0.1854E+02
 MRCHDU: Convergence failed at  32  side 2    Res =  0.3300E+01
 MRCHDU: Convergence failed at  33  side 2    Res =  0.4942E+01
 MRCHDU: Convergence failed at  34  side 2    Res =  0.6111E+02
 MRCHDU: Convergence failed at  35  side 2    Res =  0.4519E+02
 MRCHDU: Convergence failed at  36  side 2    Res =  0.2600E+02
 MRCHDU: Convergence failed at  37  side 2    Res =  0.2249E+02
 MRCHDU: Convergence failed at  38  side 2    Res =  0.2961E+02
 MRCHDU: Convergence failed at  39  side 2    Res =  0.4502E+02
 MRCHDU: Convergence failed at  40  side 2    Res =  0.9003E+02
 MRCHDU: Convergence failed at  41  side 2    Res =  0.2033E+03
 MRCHDU: Convergence failed at  42  side 2    Res =  0.2192E+04
 MRCHDU: Convergence failed at  43  side 2    Res =  0.1771E+03
 MRCHDU: Convergence failed at  44  side 2    Res =  0.3271E+06
 MRCHDU: Convergence failed at  45  side 2    Res =  0.4162E+03
 MRCHDU: Convergence failed at  46  side 2    Res =  0.2203E+03
 MRCHDU: Convergence failed at  47  side 2    Res =  0.1455E+03
 MRCHDU: Convergence failed at  48  side 2    Res =  0.9828E+02
 MRCHDU: Convergence failed at  49  side 2    Res =  0.6021E+02
 MRCHDU: Convergence failed at  50  side 2    Res =  0.3358E+02
 MRCHDU: Convergence failed at  51  side 2    Res =  0.1825E+02
 MRCHDU: Convergence failed at  52  side 2    Res =  0.1071E+02
 MRCHDU: Convergence failed at  53  side 2    Res =  0.5857E+01
 MRCHDU: Convergence failed at  54  side 2    Res =  0.3463E+01
 MRCHDU: Convergence failed at  55  side 2    Res =  0.2237E+01
 MRCHDU: Convergence failed at  56  side 2    Res =  0.1991E+01
 MRCHDU: Convergence failed at  57  side 2    Res =  0.1634E+01
 Side 1  free  transition at x/c =  0.0204   26
 Side 2  free  transition at x/c =  0.2269   30

   4   rms: 0.1185E+01   max: 0.9655E+01   T at   26  1   RLX: 0.155
       a =  9.000      CL =  1.2160
      Cm = -0.2305     CD =  0.13841   =>   CDf =  0.00243    CDp =  0.13598

 MRCHDU: Convergence failed at  27  side 1    Res =  0.7554E+01
 MRCHDU: Convergence failed at  28  side 1    Res =  0.6299E+01
 MRCHDU: Convergence failed at  29  side 1    Res =  0.3295E+02
 MRCHDU: Convergence failed at  30  side 1    Res =  0.7312E+02
 MRCHDU: Convergence failed at  31  side 1    Res =  0.1133E+02
 MRCHDU: Convergence failed at  32  side 1    Res =  0.7145E+01
 MRCHDU: Convergence failed at  33  side 1    Res =  0.1497E+02
 MRCHDU: Convergence failed at  34  side 1    Res =  0.1130E+02
 MRCHDU: Convergence failed at  35  side 1    Res =  0.1184E+02
 MRCHDU: Convergence failed at  36  side 1    Res =  0.2332E+02
 MRCHDU: Convergence failed at  37  side 1    Res =  0.5534E+02
 MRCHDU: Convergence failed at  38  side 1    Res =  0.7752E+02
 MRCHDU: Convergence failed at  39  side 1    Res =  0.2286E+02
 MRCHDU: Convergence failed at  40  side 1    Res =  0.1122E+02
 MRCHDU: Convergence failed at  41  side 1    Res =  0.7306E+01
 MRCHDU: Convergence failed at  42  side 1    Res =  0.5362E+01
 MRCHDU: Convergence failed at  43  side 1    Res =  0.3904E+01
 MRCHDU: Convergence failed at  44  side 1    Res =  0.3151E+01
 MRCHDU: Convergence failed at  45  side 1    Res =  0.3280E+01
 MRCHDU: Convergence failed at  46  side 1    Res =  0.3531E+01
 MRCHDU: Convergence failed at  47  side 1    Res =  0.3975E+01
 MRCHDU: Convergence failed at  48  side 1    Res =  0.4573E+01
 MRCHDU: Convergence failed at  49  side 1    Res =  0.5439E+01
 MRCHDU: Convergence failed at  50  side 1    Res =  0.7025E+01
 MRCHDU: Convergence failed at  51  side 1    Res =  0.9354E+01
 MRCHDU: Convergence failed at  52  side 1    Res =  0.1541E+02
 MRCHDU: Convergence failed at  53  side 1    Res =  0.3469E+02
 MRCHDU: Convergence failed at  54  side 1    Res =  0.7643E+02
 MRCHDU: Convergence failed at  55  side 1    Res =  0.2019E+02
 MRCHDU: Convergence failed at  56  side 1    Res =  0.1065E+02
 MRCHDU: Convergence failed at  57  side 1    Res =  0.7355E+01
 MRCHDU: Convergence failed at  58  side 1    Res =  0.7916E+01
 MRCHDU: Convergence failed at  59  side 1    Res =  0.9373E+01
 MRCHDU: Convergence failed at  60  side 1    Res =  0.1185E+02
 MRCHDU: Convergence failed at  61  side 1    Res =  0.2059E+02
 MRCHDU: Convergence failed at  62  side 1    Res =  0.1425E+03
 MRCHDU: Convergence failed at  63  side 1    Res =  0.2284E+02
 MRCHDU: Convergence failed at  64  side 1    Res =  0.9777E+01
 MRCHDU: Convergence failed at  65  side 1    Res =  0.6471E+01
 MRCHDU: Convergence failed at  66  side 1    Res =  0.6848E+01
 MRCHDU: Convergence failed at  67  side 1    Res =  0.7504E+01
 MRCHDU: Convergence failed at  68  side 1    Res =  0.9895E+01
 MRCHDU: Convergence failed at  69  side 1    Res =  0.2793E+02
 MRCHDU: Convergence failed at  70  side 1    Res =  0.1073E+02
 MRCHDU: Convergence failed at  71  side 1    Res =  0.3082E+01
 MRCHDU: Convergence failed at  72  side 1    Res =  0.1837E+01
 MRCHDU: Convergence failed at  73  side 1    Res =  0.4829E+00
 Side 1  free  transition at x/c =  0.0189   26
 Side 2  free  transition at x/c =  0.2360   30

   5   rms: 0.2271E+01   max: 0.1064E+02   D at   73  1   RLX: 0.141
       a =  9.000      CL =  2.1226
      Cm = -0.4919     CD =  0.13737   =>   CDf =  0.00477    CDp =  0.13260

 MRCHDU: Convergence failed at  32  side 1    Res =  0.3871E+00
 MRCHDU: Convergence failed at  33  side 1    Res =  0.4064E+00
 MRCHDU: Convergence failed at  34  side 1    Res =  0.4181E+00
 MRCHDU: Convergence failed at  35  side 1    Res =  0.4249E+00
 MRCHDU: Convergence failed at  36  side 1    Res =  0.4278E+00
 MRCHDU: Convergence failed at  37  side 1    Res =  0.4280E+00
 MRCHDU: Convergence failed at  38  side 1    Res =  0.4259E+00
 MRCHDU: Convergence failed at  39  side 1    Res =  0.4227E+00
 MRCHDU: Convergence failed at  40  side 1    Res =  0.4190E+00
 MRCHDU: Convergence failed at  41  side 1    Res =  0.4156E+00
 MRCHDU: Convergence failed at  42  side 1    Res =  0.4128E+00
 MRCHDU: Convergence failed at  43  side 1    Res =  0.4111E+00
 MRCHDU: Convergence failed at  44  side 1    Res =  0.4099E+00
 MRCHDU: Convergence failed at  45  side 1    Res =  0.4077E+00
 MRCHDU: Convergence failed at  46  side 1    Res =  0.3992E+00
 MRCHDU: Convergence failed at  47  side 1    Res =  0.4209E+00
 MRCHDU: Convergence failed at  48  side 1    Res =  0.4111E+00
 MRCHDU: Convergence failed at  49  side 1    Res =  0.3967E+00
 MRCHDU: Convergence failed at  50  side 1    Res =  0.3751E+00
 MRCHDU: Convergence failed at  51  side 1    Res =  0.3443E+00
 MRCHDU: Convergence failed at  52  side 1    Res =  0.2594E+00
 MRCHDU: Convergence failed at  56  side 1    Res =  0.4142E+00
 MRCHDU: Convergence failed at  32  side 2    Res =  0.1018E+02
 Side 1  free  transition at x/c =  0.0208   25
 Side 2  free  transition at x/c =  0.2156   30

   6   rms: 0.5663E+00   max: 0.2997E+01   T at   31  2   RLX: 0.332
       a =  9.000      CL =  0.9836
      Cm = -0.1580     CD =  0.12117   =>   CDf =  0.00522    CDp =  0.11595

 MRCHDU: Convergence failed at  41  side 1    Res =  0.1049E+01
 MRCHDU: Convergence failed at  47  side 1    Res =  0.4109E+01
 MRCHDU: Convergence failed at  48  side 1    Res =  0.4147E+01
 MRCHDU: Convergence failed at  49  side 1    Res =  0.5066E+01
 MRCHDU: Convergence failed at  52  side 1    Res =  0.4373E+01
 MRCHDU: Convergence failed at  31  side 2    Res =  0.9434E+01
 MRCHDU: Convergence failed at  32  side 2    Res =  0.9676E+01
 MRCHDU: Convergence failed at  33  side 2    Res =  0.2419E+02
 MRCHDU: Convergence failed at  34  side 2    Res =  0.4367E+02
 MRCHDU: Convergence failed at  35  side 2    Res =  0.7739E+03
 MRCHDU: Convergence failed at  36  side 2    Res =  0.6203E+02
 MRCHDU: Convergence failed at  37  side 2    Res =  0.6390E+02
 MRCHDU: Convergence failed at  38  side 2    Res =  0.4989E+02
 MRCHDU: Convergence failed at  39  side 2    Res =  0.4656E+02
 MRCHDU: Convergence failed at  40  side 2    Res =  0.4740E+02
 MRCHDU: Convergence failed at  41  side 2    Res =  0.4320E+02
 MRCHDU: Convergence failed at  42  side 2    Res =  0.4076E+02
 MRCHDU: Convergence failed at  43  side 2    Res =  0.3796E+02
 MRCHDU: Convergence failed at  44  side 2    Res =  0.3630E+02
 MRCHDU: Convergence failed at  45  side 2    Res =  0.3414E+02
 MRCHDU: Convergence failed at  46  side 2    Res =  0.3262E+02
 MRCHDU: Convergence failed at  47  side 2    Res =  0.3228E+02
 MRCHDU: Convergence failed at  48  side 2    Res =  0.2983E+02
 MRCHDU: Convergence failed at  49  side 2    Res =  0.2718E+02
 MRCHDU: Convergence failed at  50  side 2    Res =  0.3041E+02
 MRCHDU: Convergence failed at  51  side 2    Res =  0.2463E+02
 MRCHDU: Convergence failed at  52  side 2    Res =  0.2453E+02
 MRCHDU: Convergence failed at  53  side 2    Res =  0.2043E+02
 MRCHDU: Convergence failed at  54  side 2    Res =  0.1932E+02
 MRCHDU: Convergence failed at  55  side 2    Res =  0.1479E+02
 MRCHDU: Convergence failed at  56  side 2    Res =  0.1275E+02
 MRCHDU: Convergence failed at  57  side 2    Res =  0.1082E+02
 MRCHDU: Convergence failed at  58  side 2    Res =  0.8911E+01
 MRCHDU: Convergence failed at  59  side 2    Res =  0.6544E+01
 MRCHDU: Convergence failed at  60  side 2    Res =  0.3304E+01
 MRCHDU: Convergence failed at  61  side 2    Res =  0.3554E+01
 Side 1  free  transition at x/c =  0.0200   25
 Side 2  free  transition at x/c =  0.2283   31

   7   rms: 0.6108E+00   max: 0.2510E+01   C at   31  2   RLX: 0.344
       a =  9.000      CL =  0.6847
      Cm = -0.0868     CD =  0.12689   =>   CDf =  0.00527    CDp =  0.12162

 Side 1  free  transition at x/c =  0.0203   25
 Side 2  free  transition at x/c =  0.2177   31

   8   rms: 0.4672E+00   max: -.2302E+01   D at   39  1   RLX: 0.217
       a =  9.000      CL =  0.6882
      Cm = -0.0837     CD =  0.13251   =>   CDf =  0.00835    CDp =  0.12416

 Side 1  free  transition at x/c =  0.0203   25
 Side 2  free  transition at x/c =  0.2180   31

   9   rms: 0.3762E+00   max: -.1895E+01   D at   35  1   RLX: 0.264
       a =  9.000      CL =  0.6845
      Cm = -0.0775     CD =  0.12066   =>   CDf =  0.00807    CDp =  0.11259

 Side 1  free  transition at x/c =  0.0202   25
 Side 2  free  transition at x/c =  0.2190   31

  10   rms: 0.4367E+00   max: -.2078E+01   D at   41  2   RLX: 0.241
       a =  9.000      CL =  0.6961
      Cm = -0.0692     CD =  0.10979   =>   CDf =  0.00765    CDp =  0.10214

 MRCHDU: Convergence failed at  38  side 2    Res =  0.4176E+00
 MRCHDU: Convergence failed at  39  side 2    Res =  0.4231E+00
 MRCHDU: Convergence failed at  40  side 2    Res =  0.1361E+01
 MRCHDU: Convergence failed at  41  side 2    Res =  0.3329E+01
 MRCHDU: Convergence failed at  42  side 2    Res =  0.1420E+01
 MRCHDU: Convergence failed at  43  side 2    Res =  0.8274E+00
 Side 1  free  transition at x/c =  0.0199   25
 Side 2  free  transition at x/c =  0.2219   30

  11   rms: 0.6426E+01   max: -.3990E+02   D at   57  1   RLX: 0.013
       a =  9.000      CL =  0.6741
      Cm = -0.0516     CD =  0.10680   =>   CDf =  0.00830    CDp =  0.09850

 Side 1  free  transition at x/c =  0.0198   25
 Side 2  free  transition at x/c =  0.2254   30

  12   rms: 0.2783E+02   max: 0.1371E+03   D at   59  1   RLX: 0.006
       a =  9.000      CL =  0.5582
      Cm = -0.0486     CD =  0.13127   =>   CDf =  0.00851    CDp =  0.12276

 MRCHDU: Convergence failed at  56  side 1    Res =  0.1604E+01
 Side 1  free  transition at x/c =  0.0204   25
 Side 2  free  transition at x/c =  0.2173   31

  13   rms: 0.1191E+01   max: -.7711E+01   D at   56  1   RLX: 0.065
       a =  9.000      CL =  0.5907
      Cm = -0.0399     CD =  0.11278   =>   CDf =  0.00783    CDp =  0.10495

 MRCHDU: Convergence failed at  54  side 1    Res =  0.2364E+00
 Side 1  free  transition at x/c =  0.0200   26
 Side 2  free  transition at x/c =  0.2193   30

  14   rms: 0.5640E+00   max: -.3047E+01   D at   59  1   RLX: 0.164
       a =  9.000      CL =  0.6554
      Cm = -0.0414     CD =  0.10127   =>   CDf =  0.00849    CDp =  0.09278

 Side 1  free  transition at x/c =  0.0200   26
 Side 2  free  transition at x/c =  0.2217   30

  15   rms: 0.7014E+00   max: -.3971E+01   D at   59  1   RLX: 0.126
       a =  9.000      CL =  0.7428
      Cm = -0.0551     CD =  0.09432   =>   CDf =  0.00839    CDp =  0.08594

 Side 1  free  transition at x/c =  0.0200   26
 Side 2  free  transition at x/c =  0.2253   30

  16   rms: 0.2947E+01   max: -.1206E+02   D at   61  1   RLX: 0.041
       a =  9.000      CL =  0.8016
      Cm = -0.0432     CD =  0.08311   =>   CDf =  0.00822    CDp =  0.07489

 MRCHDU: Convergence failed at  63  side 1    Res =  0.1764E+01
 MRCHDU: Convergence failed at  64  side 1    Res =  0.2342E+01
 MRCHDU: Convergence failed at  65  side 1    Res =  0.1694E+01
 MRCHDU: Convergence failed at  66  side 1    Res =  0.2180E+01
 Side 1  free  transition at x/c =  0.0194   26
 Side 2  free  transition at x/c =  0.2316   29

  17   rms: 0.4261E+00   max: -.1922E+01   D at   66  1   RLX: 0.260
       a =  9.000      CL =  0.9257
      Cm = -0.0824     CD =  0.06862   =>   CDf =  0.00878    CDp =  0.05984

 Side 1  free  transition at x/c =  0.0191   26
 Side 2  free  transition at x/c =  0.2331   29

  18   rms: 0.4712E+00   max: -.1852E+01   D at   68  1   RLX: 0.270
       a =  9.000      CL =  0.9598
      Cm = -0.0651     CD =  0.05745   =>   CDf =  0.00894    CDp =  0.04852

 Side 1  free  transition at x/c =  0.0199   26
 Side 2  free  transition at x/c =  0.2380   30

  19   rms: 0.4908E+01   max: -.2749E+02   T at   26  1   RLX: 0.018
       a =  9.000      CL =  1.0115
      Cm = -0.0585     CD =  0.05988   =>   CDf =  0.00885    CDp =  0.05103

 Side 1  free  transition at x/c =  0.0199   27
 Side 2  free  transition at x/c =  0.2434   29

  20   rms: 0.6142E+00   max: -.2105E+01   D at   73  1   RLX: 0.237
       a =  9.000      CL =  1.1292
      Cm = -0.0771     CD =  0.04347   =>   CDf =  0.00920    CDp =  0.03427

 Side 1  free  transition at x/c =  0.0200   28
 Side 2  free  transition at x/c =  0.2498   29

  21   rms: 0.1060E+01   max: 0.2983E+01   T at   29  2   RLX: 0.168
       a =  9.000      CL =  0.9987
      Cm = -0.0842     CD =  0.05068   =>   CDf =  0.00968    CDp =  0.04100

 Side 1  free  transition at x/c =  0.0203   27
 Side 2  free  transition at x/c =  0.2382   30

  22   rms: 0.2243E+00   max: -.1445E+01   T at   27  1   RLX: 0.346
       a =  9.000      CL =  0.9415
      Cm = -0.0646     CD =  0.05353   =>   CDf =  0.00904    CDp =  0.04449

 Side 1  free  transition at x/c =  0.0206   27
 Side 2  free  transition at x/c =  0.2364   30

  23   rms: 0.1881E+00   max: 0.8198E+00   T at   27  1   RLX: 0.703
       a =  9.000      CL =  0.9430
      Cm = -0.0594     CD =  0.04403   =>   CDf =  0.00855    CDp =  0.03547

 Side 1  free  transition at x/c =  0.0197   26
 Side 2  free  transition at x/c =  0.2374   30

  24   rms: 0.1348E+01   max: 0.9535E+01   T at   26  1   RLX: 0.093
       a =  9.000      CL =  0.8510
      Cm = -0.0503     CD =  0.05225   =>   CDf =  0.00880    CDp =  0.04345

 Side 1  free  transition at x/c =  0.0193   26
 Side 2  free  transition at x/c =  0.2322   29

  25   rms: 0.2092E+00   max: -.7814E+00   D at   71  1   RLX: 0.640
       a =  9.000      CL =  0.9315
      Cm = -0.0518     CD =  0.04375   =>   CDf =  0.00829    CDp =  0.03546
 VISCAL:  Convergence failed
 Calculating wake trajectory ...
 Calculating source influence matrix ...

 Solving BL system ...

 Side 1  free  transition at x/c =  0.0208   27
 Side 2  free  transition at x/c =  0.2387   30

   1   rms: 0.2845E+00   max: 0.3118E+01   T at   27  1   RLX: 0.481
       a = 10.000      CL =  0.9814
      Cm = -0.0590     CD =  0.04511   =>   CDf =  0.00853    CDp =  0.03658

 MRCHDU: Convergence failed at  28  side 1    Res =  0.3839E+02
 MRCHDU: Convergence failed at  29  side 1    Res =  0.3743E+03
 MRCHDU: Convergence failed at  30  side 1    Res =  0.3389E+02
 MRCHDU: Convergence failed at  31  side 1    Res =  0.9479E+02
 MRCHDU: Convergence failed at  32  side 1    Res =  0.4993E+02
 MRCHDU: Convergence failed at  33  side 1    Res =  0.6038E+02
 MRCHDU: Convergence failed at  34  side 1    Res =  0.2268E+03
 MRCHDU: Convergence failed at  35  side 1    Res =  0.4455E+03
 MRCHDU: Convergence failed at  36  side 1    Res =  0.1586E+03
 MRCHDU: Convergence failed at  37  side 1    Res =  0.1763E+03
 MRCHDU: Convergence failed at  38  side 1    Res =  0.2020E+03
 MRCHDU: Convergence failed at  39  side 1    Res =  0.1509E+04
 MRCHDU: Convergence failed at  40  side 1    Res =  0.3133E+03
 MRCHDU: Convergence failed at  41  side 1    Res =  0.1582E+03
 MRCHDU: Convergence failed at  42  side 1    Res =  0.1265E+03
 MRCHDU: Convergence failed at  43  side 1    Res =  0.1267E+03
 MRCHDU: Convergence failed at  44  side 1    Res =  0.4622E+02
 MRCHDU: Convergence failed at  45  side 1    Res =  0.4636E+02
 MRCHDU: Convergence failed at  46  side 1    Res =  0.8634E+02
 MRCHDU: Convergence failed at  47  side 1    Res =  0.4559E+02
 MRCHDU: Convergence failed at  48  side 1    Res =  0.4104E+02
 MRCHDU: Convergence failed at  49  side 1    Res =  0.1062E+03
 MRCHDU: Convergence failed at  50  side 1    Res =  0.1053E+03
 MRCHDU: Convergence failed at  51  side 1    Res =  0.9303E+02
 MRCHDU: Convergence failed at  52  side 1    Res =  0.9896E+02
 MRCHDU: Convergence failed at  53  side 1    Res =  0.8802E+02
 MRCHDU: Convergence failed at  54  side 1    Res =  0.8843E+02
 MRCHDU: Convergence failed at  55  side 1    Res =  0.9018E+02
 MRCHDU: Convergence failed at  56  side 1    Res =  0.1182E+03
 MRCHDU: Convergence failed at  57  side 1    Res =  0.3521E+03
 MRCHDU: Convergence failed at  58  side 1    Res =  0.1631E+03
 MRCHDU: Convergence failed at  59  side 1    Res =  0.1179E+03
 MRCHDU: Convergence failed at  60  side 1    Res =  0.5307E+02
 MRCHDU: Convergence failed at  61  side 1    Res =  0.1763E+03
 MRCHDU: Convergence failed at  62  side 1    Res =  0.1874E+03
 MRCHDU: Convergence failed at  63  side 1    Res =  0.5068E+03
 MRCHDU: Convergence failed at  64  side 1    Res =  0.6051E+02
 MRCHDU: Convergence failed at  65  side 1    Res =  0.6635E+02
 MRCHDU: Convergence failed at  66  side 1    Res =  0.1657E+03
 MRCHDU: Convergence failed at  67  side 1    Res =  0.7715E+02
 MRCHDU: Convergence failed at  68  side 1    Res =  0.1616E+03
 MRCHDU: Convergence failed at  69  side 1    Res =  0.1281E+03
 MRCHDU: Convergence failed at  70  side 1    Res =  0.3347E+03
 MRCHDU: Convergence failed at  71  side 1    Res =  0.4230E+03
 MRCHDU: Convergence failed at  72  side 1    Res =  0.6543E+02
 MRCHDU: Convergence failed at  73  side 1    Res =  0.5574E+02
 MRCHDU: Convergence failed at  74  side 1    Res =  0.1042E+03
 MRCHDU: Convergence failed at  75  side 1    Res =  0.1305E+03
 MRCHDU: Convergence failed at  76  side 1    Res =  0.1967E+03
 MRCHDU: Convergence failed at  77  side 1    Res =  0.3205E+03
 MRCHDU: Convergence failed at  78  side 1    Res =  0.3147E+03
 MRCHDU: Convergence failed at  79  side 1    Res =  0.2803E+03
 MRCHDU: Convergence failed at  80  side 1    Res =  0.2338E+03
 MRCHDU: Convergence failed at  81  side 1    Res =  0.1778E+03
 MRCHDU: Convergence failed at  82  side 1    Res =  0.2628E+03
 MRCHDU: Convergence failed at  83  side 1    Res =  0.5528E+03
 MRCHDU: Convergence failed at  84  side 1    Res =  0.3623E+03
 MRCHDU: Convergence failed at  85  side 1    Res =  0.3211E+03
 MRCHDU: Convergence failed at  86  side 1    Res =  0.1037E+03
 MRCHDU: Convergence failed at  87  side 1    Res =  0.1909E+04
 MRCHDU: Convergence failed at  88  side 1    Res =  0.8761E+03
 MRCHDU: Convergence failed at  89  side 1    Res =  0.6714E+03
 MRCHDU: Convergence failed at  90  side 1    Res =  0.5991E+03
 MRCHDU: Convergence failed at  91  side 1    Res =  0.5754E+03
 MRCHDU: Convergence failed at  92  side 1    Res =  0.7401E+03
 MRCHDU: Convergence failed at  80  side 2    Res =  0.2527E+01
 Side 1  free  transition at x/c =  0.0182   27
 Side 2  free  transition at x/c =  0.2463   29

   2   rms: 0.1694E+01   max: 0.8593E+01   D at   77  2   RLX: 0.132
       a = 10.000      CL =  3.0153
      Cm = -0.7334     CD =  0.01444   =>   CDf =  0.00347    CDp =  0.01097

 MRCHDU: Convergence failed at  78  side 2    Res =  0.6515E+01
 MRCHDU: Convergence failed at  79  side 2    Res =  0.3182E+01
 MRCHDU: Convergence failed at  80  side 2    Res =  0.2234E+01
 MRCHDU: Convergence failed at  81  side 2    Res =  0.5774E+02
 MRCHDU: Convergence failed at  82  side 2    Res =  0.1539E+03
 MRCHDU: Convergence failed at  83  side 2    Res =  0.5010E+01
 MRCHDU: Convergence failed at  84  side 2    Res =  0.1329E+02
 MRCHDU: Convergence failed at  85  side 2    Res =  0.1083E+02
 MRCHDU: Convergence failed at  86  side 2    Res =  0.4034E+01
 MRCHDU: Convergence failed at  87  side 2    Res =  0.2397E+01
 Side 1  free  transition at x/c =  0.0196   26
 Side 2  free  transition at x/c =  0.2405   30

   3   rms: 0.8284E+00   max: 0.3247E+01   C at   71  2   RLX: 0.209
       a = 10.000      CL =  1.8436
      Cm = -0.3932     CD =  0.11026   =>   CDf =  0.00400    CDp =  0.10626

 Side 1  free  transition at x/c =  0.0199   26
 Side 2  free  transition at x/c =  0.2390   30

   4   rms: 0.7296E+00   max: -.3861E+01   D at   93  2   RLX: 0.129
       a = 10.000      CL =  1.6812
[...]
      Cm = -0.4002     CD =  0.47048   =>   CDf =  0.00559    CDp =  0.46489

 MRCHDU: Convergence failed at  38  side 2    Res =  0.6487E+01
 MRCHDU: Convergence failed at  71  side 2    Res =  0.4866E+00
 Side 1  free  transition at x/c =  0.0284   29
 Side 2  free  transition at x/c =  0.2633   31

   7   rms: 0.1522E+01   max: 0.6749E+01   C at   71  2   RLX: 0.173
       a = 11.000      CL =  1.5836
      Cm = -0.3137     CD =  0.42212   =>   CDf =  0.00581    CDp =  0.41631

 MRCHDU: Convergence failed at  38  side 2    Res =  0.8837E+00
 Side 1  free  transition at x/c =  0.0285   28
 Side 2  free  transition at x/c =  0.2520   32

   8   rms: 0.1317E+01   max: 0.9459E+01   C at   72  2   RLX: 0.158
       a = 11.000      CL =  1.3064
      Cm = -0.2565     CD =  0.63750   =>   CDf =  0.00542    CDp =  0.63208

 MRCHDU: Convergence failed at  32  side 2    Res =  0.4925E+01
 MRCHDU: Convergence failed at  35  side 2    Res =  0.1173E+03
 MRCHDU: Convergence failed at  36  side 2    Res =  0.3574E+01
 MRCHDU: Convergence failed at  39  side 2    Res =  0.2306E+01
 Side 1  free  transition at x/c =  0.0285   28
 Side 2  free  transition at x/c =  0.2429   31

   9   rms: 0.1076E+01   max: 0.7742E+01   C at   72  2   RLX: 0.194
       a = 11.000      CL =  1.0409
      Cm = -0.2036     CD =  0.88652   =>   CDf =  0.00543    CDp =  0.88108

 Side 1  free  transition at x/c =  0.0285   27
 Side 2  free  transition at x/c =  0.2323   31

  10   rms: 0.1072E+01   max: 0.9096E+01   C at   73  2   RLX: 0.165
       a = 11.000      CL =  0.8923
      Cm = -0.1705     CD =  1.30939   =>   CDf =  0.00511    CDp =  1.30429

 MRCHDU: Convergence failed at  32  side 2    Res =  0.3408E+01
 Side 1  free  transition at x/c =  0.0287   27
 Side 2  free  transition at x/c =  0.2294   31

  11   rms: 0.9794E+00   max: 0.4813E+01   C at   73  2   RLX: 0.122
       a = 11.000      CL =  0.7967
      Cm = -0.1500     CD =  1.68901   =>   CDf =  0.00479    CDp =  1.68422

 MRCHDU: Convergence failed at  43  side 2    Res =  0.3741E+01
 MRCHDU: Convergence failed at  44  side 2    Res =  0.4240E+01
 MRCHDU: Convergence failed at  45  side 2    Res =  0.4448E+01
 MRCHDU: Convergence failed at  46  side 2    Res =  0.3754E+01
 MRCHDU: Convergence failed at  47  side 2    Res =  0.3072E+01
 MRCHDU: Convergence failed at  48  side 2    Res =  0.3220E+01
 Side 1  free  transition at x/c =  0.0289   27
 Side 2  free  transition at x/c =  0.2331   31

  12   rms: 0.1054E+01   max: -.5404E+01   D at   49  2   RLX: 0.093
       a = 11.000      CL =  0.7180
      Cm = -0.1313     CD =  1.94993   =>   CDf =  0.00430    CDp =  1.94563

 MRCHDU: Convergence failed at  42  side 2    Res =  0.3473E+00
 MRCHDU: Convergence failed at  43  side 2    Res =  0.1027E+01
 Side 1  free  transition at x/c =  0.0290   27
 Side 2  free  transition at x/c =  0.2335   31

  13   rms: 0.8526E+00   max: 0.4023E+01   C at   31  2   RLX: 0.133
       a = 11.000      CL =  0.6398
      Cm = -0.1134     CD =  2.16080   =>   CDf =  0.00500    CDp =  2.15580

 MRCHDU: Convergence failed at  34  side 2    Res =  0.2147E+01
 MRCHDU: Convergence failed at  44  side 2    Res =  0.2194E+01
 MRCHDU: Convergence failed at  45  side 2    Res =  0.2112E+01
 MRCHDU: Convergence failed at  46  side 2    Res =  0.2889E+01
 Side 1  free  transition at x/c =  0.0292   27
 Side 2  free  transition at x/c =  0.2343   32

  14   rms: 0.8454E+00   max: 0.4736E+01   C at   71  2   RLX: 0.167
       a = 11.000      CL =  0.5447
      Cm = -0.0900     CD =  2.55248   =>   CDf =  0.00501    CDp =  2.54747

 MRCHDU: Convergence failed at  48  side 2    Res =  0.1562E+01
 Side 1  free  transition at x/c =  0.0294   27
 Side 2  free  transition at x/c =  0.2297   31

  15   rms: 0.8360E+00   max: 0.4599E+01   C at   71  2   RLX: 0.156
       a = 11.000      CL =  0.4996
      Cm = -0.0754     CD =  2.92866   =>   CDf =  0.00470    CDp =  2.92396

 Side 1  free  transition at x/c =  0.0295   27
 Side 2  free  transition at x/c =  0.2326   31

  16   rms: 0.7551E+00   max: 0.4245E+01   C at   31  2   RLX: 0.148
       a = 11.000      CL =  0.4679
      Cm = -0.0632     CD =  2.88752   =>   CDf =  0.00461    CDp =  2.88291

 MRCHDU: Convergence failed at  32  side 2    Res =  0.2000E+01
 MRCHDU: Convergence failed at  33  side 2    Res =  0.9008E+01
 MRCHDU: Convergence failed at  34  side 2    Res =  0.7372E+01
 MRCHDU: Convergence failed at  36  side 2    Res =  0.3420E+02
 MRCHDU: Convergence failed at  37  side 2    Res =  0.1658E+02
 MRCHDU: Convergence failed at  38  side 2    Res =  0.7950E+01
 MRCHDU: Convergence failed at  39  side 2    Res =  0.8888E+01
 MRCHDU: Convergence failed at  40  side 2    Res =  0.7287E+01
 MRCHDU: Convergence failed at  47  side 2    Res =  0.4356E+00
 MRCHDU: Convergence failed at  48  side 2    Res =  0.7927E+00
 MRCHDU: Convergence failed at  49  side 2    Res =  0.8004E+00
 MRCHDU: Convergence failed at  50  side 2    Res =  0.2098E+01
 MRCHDU: Convergence failed at  51  side 2    Res =  0.4767E+01
 MRCHDU: Convergence failed at  52  side 2    Res =  0.6630E+00
 Side 1  free  transition at x/c =  0.0296   27
 Side 2  free  transition at x/c =  0.2391   32

  17   rms: 0.7598E+00   max: 0.3780E+01   C at   71  2   RLX: 0.232
       a = 11.000      CL =  0.3639
      Cm = -0.0315     CD =  2.27764   =>   CDf =  0.00464    CDp =  2.27300

 MRCHDU: Convergence failed at  53  side 2    Res =  0.9552E+00
 MRCHDU: Convergence failed at  54  side 2    Res =  0.4698E+00
 Side 1  free  transition at x/c =  0.0291   27
 Side 2  free  transition at x/c =  0.2346   32

  18   rms: 0.6787E+00   max: 0.3470E+01   C at   71  2   RLX: 0.328
       a = 11.000      CL =  0.3795
      Cm = -0.0128     CD =  1.17708   =>   CDf =  0.00495    CDp =  1.17213

 Side 1  free  transition at x/c =  0.0258   27
 Side 2  free  transition at x/c =  0.2342   31

  19   rms: 0.7171E+00   max: 0.5449E+01   T at   27  1   RLX: 0.193
       a = 11.000      CL =  0.4254
      Cm = -0.0081     CD =  0.78908   =>   CDf =  0.00467    CDp =  0.78442

 MRCHDU: Convergence failed at  54  side 2    Res =  0.2843E+00
 Side 1  free  transition at x/c =  0.0250   27
 Side 2  free  transition at x/c =  0.2386   31

  20   rms: 0.6396E+00   max: -.8927E+01   T at   27  1   RLX: 0.056
       a = 11.000      CL =  0.4865
      Cm = -0.0189     CD =  0.76570   =>   CDf =  0.00466    CDp =  0.76104

 Side 1  free  transition at x/c =  0.0299   28
 Side 2  free  transition at x/c =  0.2388   31

  21   rms: 0.8743E+01   max: -.3203E+02   T at   29  1   RLX: 0.016
       a = 11.000      CL =  0.4300
      Cm = -0.0316     CD =  0.98229   =>   CDf =  0.00472    CDp =  0.97757

 MRCHDU: Convergence failed at  32  side 2    Res =  0.1687E+02
 MRCHDU: Convergence failed at  33  side 2    Res =  0.2435E+01
 MRCHDU: Convergence failed at  34  side 2    Res =  0.2325E+01
 MRCHDU: Convergence failed at  35  side 2    Res =  0.3232E+01
 MRCHDU: Convergence failed at  36  side 2    Res =  0.3820E+01
 MRCHDU: Convergence failed at  37  side 2    Res =  0.4340E+01
 MRCHDU: Convergence failed at  38  side 2    Res =  0.4770E+01
 MRCHDU: Convergence failed at  39  side 2    Res =  0.5076E+01
 MRCHDU: Convergence failed at  40  side 2    Res =  0.5240E+01
 MRCHDU: Convergence failed at  41  side 2    Res =  0.5473E+01
 MRCHDU: Convergence failed at  42  side 2    Res =  0.5723E+01
 MRCHDU: Convergence failed at  43  side 2    Res =  0.5702E+01
 MRCHDU: Convergence failed at  44  side 2    Res =  0.5668E+01
 MRCHDU: Convergence failed at  45  side 2    Res =  0.5433E+01
 MRCHDU: Convergence failed at  46  side 2    Res =  0.4182E+01
 MRCHDU: Convergence failed at  47  side 2    Res =  0.3820E+01
 MRCHDU: Convergence failed at  48  side 2    Res =  0.3425E+01
 MRCHDU: Convergence failed at  49  side 2    Res =  0.2938E+01
 MRCHDU: Convergence failed at  50  side 2    Res =  0.2367E+01
 MRCHDU: Convergence failed at  51  side 2    Res =  0.3680E+01
 MRCHDU: Convergence failed at  52  side 2    Res =  0.3090E+01
 MRCHDU: Convergence failed at  53  side 2    Res =  0.2815E+01
 Side 1  free  transition at x/c =  0.0318   28
 Side 2  free  transition at x/c =  0.2293   31

  22   rms: 0.3095E+02   max: 0.5633E+03   T at   28  1   RLX: 0.003
       a = 11.000      CL =  0.3411
      Cm = -0.0053     CD =  0.90690   =>   CDf =  0.00290    CDp =  0.90400

 Side 1  free  transition at x/c =  0.0274   28
 Side 2  free  transition at x/c =  0.2369   31

  23   rms: 0.6918E+00   max: -.4610E+01   T at   28  1   RLX: 0.108
       a = 11.000      CL =  0.4065
      Cm = -0.0084     CD =  0.71584   =>   CDf =  0.00530    CDp =  0.71054

 Side 1  free  transition at x/c =  0.0295   28
 Side 2  free  transition at x/c =  0.2393   31

  24   rms: 0.1018E+01   max: -.3829E+01   D at   50  1   RLX: 0.131
       a = 11.000      CL =  0.5016
      Cm = -0.0099     CD =  0.48717   =>   CDf =  0.00514    CDp =  0.48203

 Side 1  free  transition at x/c =  0.0297   28
 Side 2  free  transition at x/c =  0.2480   31

  25   rms: 0.1339E+01   max: -.4673E+01   D at   51  1   RLX: 0.107
       a = 11.000      CL =  0.6011
      Cm = -0.0016     CD =  0.34093   =>   CDf =  0.00506    CDp =  0.33587
 VISCAL:  Convergence failed
 Calculating wake trajectory ...
 Calculating source influence matrix ...

 Solving BL system ...

 MRCHDU: Convergence failed at  31  side 2    Res =  0.5598E+01
 MRCHDU: Convergence failed at  54  side 2    Res =  0.3236E+00
 Side 1  free  transition at x/c =  0.0299   29
 Side 2  free  transition at x/c =  0.2613   31

   1   rms: 0.1200E+01   max: -.3508E+01   D at   57  1   RLX: 0.143
       a = 12.000      CL =  0.7342
      Cm =  0.0051     CD =  0.21343   =>   CDf =  0.00492    CDp =  0.20851

 Side 1  free  transition at x/c =  0.0295   30
 Side 2  free  transition at x/c =  0.2914   32

   2   rms: 0.5619E+00   max: 0.1849E+01   C at   47  2   RLX: 0.289
       a = 12.000      CL =  0.8148
      Cm =  0.0114     CD =  0.12866   =>   CDf =  0.00567    CDp =  0.12298

 MRCHDU: Convergence failed at  54  side 2    Res =  0.1409E+01
 Side 1  free  transition at x/c =  0.0294   30
 Side 2  free  transition at x/c =  0.2962   32

   3   rms: 0.4182E+00   max: 0.1363E+01   C at   32  2   RLX: 0.386
       a = 12.000      CL =  0.9049
      Cm =  0.0046     CD =  0.08591   =>   CDf =  0.00572    CDp =  0.08019

 Side 1  free  transition at x/c =  0.0281   31
 Side 2  free  transition at x/c =  0.2925   31

   4   rms: 0.2905E+00   max: 0.1340E+01   T at   31  1   RLX: 0.525
       a = 12.000      CL =  1.0043
      Cm = -0.0125     CD =  0.06850   =>   CDf =  0.00584    CDp =  0.06265

 MRCHDU: Convergence failed at  73  side 1    Res =  0.9861E+00
 Side 1  free  transition at x/c =  0.0259   30
 Side 2  free  transition at x/c =  0.2885   31

   5   rms: 0.2019E+00   max: -.9218E+00   D at   90  2   RLX: 0.542
       a = 12.000      CL =  1.0649
      Cm = -0.0283     CD =  0.07493   =>   CDf =  0.00576    CDp =  0.06917

 Side 1  free  transition at x/c =  0.0247   30
 Side 2  free  transition at x/c =  0.2853   30

   6   rms: 0.1600E+00   max: -.8930E+00   D at   89  2   RLX: 0.560
       a = 12.000      CL =  1.1173
      Cm = -0.0346     CD =  0.07966   =>   CDf =  0.00569    CDp =  0.07397

 Side 1  free  transition at x/c =  0.0237   31
 Side 2  free  transition at x/c =  0.2872   29

   7   rms: 0.1660E+00   max: -.8924E+00   D at   88  2   RLX: 0.560
       a = 12.000      CL =  1.1853
      Cm = -0.0430     CD =  0.08320   =>   CDf =  0.00586    CDp =  0.07734

 Side 1  free  transition at x/c =  0.0234   31
 Side 2  free  transition at x/c =  0.2930   30

   8   rms: 0.3635E+01   max: -.1748E+02   T at   31  1   RLX: 0.029
       a = 12.000      CL =  1.0860
      Cm = -0.0355     CD =  0.08125   =>   CDf =  0.00627    CDp =  0.07498

 Side 1  free  transition at x/c =  0.0238   30
 Side 2  free  transition at x/c =  0.2840   30

   9   rms: 0.2393E+00   max: -.9438E+00   D at   89  2   RLX: 0.530
       a = 12.000      CL =  1.1962
      Cm = -0.0464     CD =  0.08614   =>   CDf =  0.00525    CDp =  0.08089

 Side 1  free  transition at x/c =  0.0231   30
 Side 2  free  transition at x/c =  0.2936   30

  10   rms: 0.1931E+00   max: -.6646E+00   D at   72  1   RLX: 0.752
       a = 12.000      CL =  1.2457
      Cm = -0.0496     CD =  0.08181   =>   CDf =  0.00544    CDp =  0.07637

 Side 1  free  transition at x/c =  0.0231   30
 Side 2  free  transition at x/c =  0.2991   30

  11   rms: 0.7600E-01   max: -.4190E+00   D at   87  2
       a = 12.000      CL =  1.2720
      Cm = -0.0533     CD =  0.07651   =>   CDf =  0.00646    CDp =  0.07004

 Side 1  free  transition at x/c =  0.0232   32
 Side 2  free  transition at x/c =  0.3029   29

  12   rms: 0.6173E-01   max: 0.2326E+00   T at   32  1
       a = 12.000      CL =  1.2875
      Cm = -0.0551     CD =  0.07851   =>   CDf =  0.00690    CDp =  0.07161

 Side 1  free  transition at x/c =  0.0231   31
 Side 2  free  transition at x/c =  0.3054   29

  13   rms: 0.1839E+00   max: 0.1429E+01   D at   89  2
       a = 12.000      CL =  1.2560
      Cm = -0.0506     CD =  0.06365   =>   CDf =  0.00732    CDp =  0.05633

 MRCHDU: Convergence failed at  89  side 2    Res =  0.1749E+01
 Side 1  free  transition at x/c =  0.0231   31
 Side 2  free  transition at x/c =  0.3032   29

  14   rms: 0.4957E-01   max: -.3832E+00   D at   88  2
       a = 12.000      CL =  1.2679
      Cm = -0.0522     CD =  0.07576   =>   CDf =  0.00642    CDp =  0.06933

 Side 1  free  transition at x/c =  0.0231   31
 Side 2  free  transition at x/c =  0.3026   29

  15   rms: 0.8468E-01   max: 0.5485E+00   D at   89  2
       a = 12.000      CL =  1.2507
      Cm = -0.0503     CD =  0.07459   =>   CDf =  0.00687    CDp =  0.06772

 Side 1  free  transition at x/c =  0.0235   32
 Side 2  free  transition at x/c =  0.3012   29

  16   rms: 0.2556E+00   max: 0.1072E+01   T at   32  1
       a = 12.000      CL =  1.3595
      Cm = -0.0627     CD =  0.08154   =>   CDf =  0.00746    CDp =  0.07409

 MRCHDU: Convergence failed at  88  side 1    Res =  0.9448E+00
 MRCHDU: Convergence failed at  89  side 1    Res =  0.9916E+00
 MRCHDU: Convergence failed at  90  side 1    Res =  0.9280E+00
 MRCHDU: Convergence failed at  91  side 1    Res =  0.1006E+01
 MRCHDU: Convergence failed at  92  side 1    Res =  0.1079E+01
 MRCHDU: Convergence failed at  93  side 1    Res =  0.1194E+01
 MRCHDU: Convergence failed at  94  side 1    Res =  0.1269E+01
 MRCHDU: Convergence failed at  95  side 1    Res =  0.1323E+01
 Side 1  free  transition at x/c =  0.0226   31
 Side 2  free  transition at x/c =  0.3160   30

  17   rms: 0.3400E+00   max: 0.1178E+01   D at   32  1
       a = 12.000      CL =  1.3590
      Cm = -0.0610     CD =  0.08544   =>   CDf =  0.00714    CDp =  0.07829

 MRCHDU: Convergence failed at  85  side 1    Res =  0.2686E+01
 MRCHDU: Convergence failed at  86  side 1    Res =  0.3323E+01
 MRCHDU: Convergence failed at  87  side 1    Res =  0.4487E+01
 MRCHDU: Convergence failed at  88  side 1    Res =  0.1314E+02
 MRCHDU: Convergence failed at  89  side 1    Res =  0.3909E+02
 MRCHDU: Convergence failed at  90  side 1    Res =  0.8380E+01
 MRCHDU: Convergence failed at  91  side 1    Res =  0.3573E+01
 MRCHDU: Convergence failed at  92  side 1    Res =  0.3083E+01
 MRCHDU: Convergence failed at  93  side 1    Res =  0.2738E+01
 MRCHDU: Convergence failed at  94  side 1    Res =  0.2542E+01
 MRCHDU: Convergence failed at  95  side 1    Res =  0.2463E+01
 Side 1  free  transition at x/c =  0.0203   31
 Side 2  free  transition at x/c =  0.3079   30

  18   rms: 0.1636E+00   max: -.8944E+00   T at   31  1   RLX: 0.559
       a = 12.000      CL =  1.3025
      Cm = -0.0674     CD =  0.06878   =>   CDf =  0.00637    CDp =  0.06242

 MRCHDU: Convergence failed at  31  side 2    Res =  0.3353E+01
 MRCHDU: Convergence failed at  32  side 2    Res =  0.8970E+01
 MRCHDU: Convergence failed at  33  side 2    Res =  0.5099E+01
 MRCHDU: Convergence failed at  34  side 2    Res =  0.5406E+01
 MRCHDU: Convergence failed at  35  side 2    Res =  0.3251E+01
 MRCHDU: Convergence failed at  36  side 2    Res =  0.3766E+01
 MRCHDU: Convergence failed at  37  side 2    Res =  0.4096E+01
 MRCHDU: Convergence failed at  38  side 2    Res =  0.4264E+01
 MRCHDU: Convergence failed at  39  side 2    Res =  0.4284E+01
 MRCHDU: Convergence failed at  40  side 2    Res =  0.4084E+01
 MRCHDU: Convergence failed at  41  side 2    Res =  0.3779E+01
 MRCHDU: Convergence failed at  42  side 2    Res =  0.3349E+01
 MRCHDU: Convergence failed at  43  side 2    Res =  0.2876E+01
 MRCHDU: Convergence failed at  44  side 2    Res =  0.5213E+01
 MRCHDU: Convergence failed at  45  side 2    Res =  0.4712E+01
 MRCHDU: Convergence failed at  46  side 2    Res =  0.4802E+01
 MRCHDU: Convergence failed at  47  side 2    Res =  0.4643E+01
 Side 1  free  transition at x/c =  0.0207   30
 Side 2  free  transition at x/c =  0.3010   30

  19   rms: 0.2195E+00   max: 0.1971E+01   T at   30  2   RLX: 0.472
       a = 12.000      CL =  1.2119
      Cm = -0.0539     CD =  0.07011   =>   CDf =  0.00479    CDp =  0.06532

 Side 1  free  transition at x/c =  0.0214   30
 Side 2  free  transition at x/c =  0.2807   29

  20   rms: 0.2033E+00   max: -.9938E+00   D at   43  2   RLX: 0.503
       a = 12.000      CL =  1.2126
      Cm = -0.0543     CD =  0.07555   =>   CDf =  0.00525    CDp =  0.07031

 Side 1  free  transition at x/c =  0.0221   30
 Side 2  free  transition at x/c =  0.2879   29

  21   rms: 0.2766E+00   max: -.1710E+01   D at   36  2   RLX: 0.292
       a = 12.000      CL =  1.2081
      Cm = -0.0511     CD =  0.07691   =>   CDf =  0.00563    CDp =  0.07128

 MRCHDU: Convergence failed at  31  side 2    Res =  0.3533E+01
 MRCHDU: Convergence failed at  32  side 2    Res =  0.3455E+01
 MRCHDU: Convergence failed at  33  side 2    Res =  0.3098E+01
 MRCHDU: Convergence failed at  34  side 2    Res =  0.3928E+01
 MRCHDU: Convergence failed at  35  side 2    Res =  0.5793E+01
 MRCHDU: Convergence failed at  38  side 2    Res =  0.2777E+01
 MRCHDU: Convergence failed at  39  side 2    Res =  0.1288E+01
 MRCHDU: Convergence failed at  40  side 2    Res =  0.1486E+01
 MRCHDU: Convergence failed at  41  side 2    Res =  0.1167E+01
 MRCHDU: Convergence failed at  42  side 2    Res =  0.1452E+01
 Side 1  free  transition at x/c =  0.0224   30
 Side 2  free  transition at x/c =  0.3026   30

  22   rms: 0.1533E+00   max: 0.1173E+01   C at   30  2
       a = 12.000      CL =  1.2054
      Cm = -0.0472     CD =  0.07317   =>   CDf =  0.00575    CDp =  0.06742

 MRCHDU: Convergence failed at  31  side 2    Res =  0.1762E+01
 MRCHDU: Convergence failed at  32  side 2    Res =  0.1044E+02
 MRCHDU: Convergence failed at  33  side 2    Res =  0.1591E+01
 Side 1  free  transition at x/c =  0.0231   30
 Side 2  free  transition at x/c =  0.2942   30

  23   rms: 0.1206E+00   max: 0.5119E+00   T at   32  2
       a = 12.000      CL =  1.2903
      Cm = -0.0538     CD =  0.07435   =>   CDf =  0.00610    CDp =  0.06825

 Side 1  free  transition at x/c =  0.0232   31
 Side 2  free  transition at x/c =  0.3019   30

  24   rms: 0.6857E-01   max: -.3410E+00   T at   31  1
       a = 12.000      CL =  1.2376
Got result {'DD': 0.01705, 'Dmin': 0.02558, 'LL': -0.6125}
Completed successfully in 3.53 seconds. [{'DD': 0.01705, 'Dmin': 0.02558, 'LL': -0.6125}]
      Cm = -0.0464     CD =  0.06928   =>   CDf =  0.00717    CDp =  0.06211

 Side 1  free  transition at x/c =  0.0235   31
 Side 2  free  transition at x/c =  0.2948   30

  25   rms: 0.3877E-01   max: 0.2285E+00   T at   31  1
       a = 12.000      CL =  1.2541
      Cm = -0.0503     CD =  0.07220   =>   CDf =  0.00631    CDp =  0.06589
 VISCAL:  Convergence failed

 Sequence halted since previous  4 points did not converge
 Last-converged  alpha =   8.000    CL =   0.91388

.OPERva   c>  
 XFOIL   c>  
