Job launching after 0.34 seconds in submission.
Running python job.
Changed into dir /home/simonx/Documents/Udacity/Projects/capstone/PESM_NSGA2_CST_XFoil
Importing evaluationFunctionXFoil.py
Running evaluationFunctionXFoil.main()
0
1
2
0.04
resp: 
 ===================================================
  XFOIL Version 6.97
  Copyright (C) 2000   Mark Drela, Harold Youngren

  This software comes with ABSOLUTELY NO WARRANTY,
    subject to the GNU General Public License.

  Caveat computor
 ===================================================

 File  xfoil.def  not found

   QUIT    Exit program

  .OPER    Direct operating point(s)
  .MDES    Complex mapping design routine
  .QDES    Surface speed design routine
  .GDES    Geometry design routine

   SAVE f  Write airfoil to labeled coordinate file
   PSAV f  Write airfoil to plain coordinate file
   ISAV f  Write airfoil to ISES coordinate file
   MSAV f  Write airfoil to MSES coordinate file
   REVE    Reverse written-airfoil node ordering
   DELI i  Change written-airfoil file delimiters

   LOAD f  Read buffer airfoil from coordinate file
   NACA i  Set NACA 4,5-digit airfoil and buffer airfoil
   INTE    Set buffer airfoil by interpolating two airfoils
   NORM    Buffer airfoil normalization toggle
   HALF    Halve the number of points in buffer airfoil
   XYCM rr Change CM reference location, currently  0.25000 0.00000

   BEND    Display structural properties of current airfoil

   PCOP    Set current-airfoil panel nodes directly from buffer airfoil points
   PANE    Set current-airfoil panel nodes ( 160 ) based on curvature
  .PPAR    Show/change paneling

  .PLOP    Plotting options

   WDEF f  Write  current-settings file
   RDEF f  Reread current-settings file
   NAME s  Specify new airfoil name
   NINC    Increment name version number

   Z       Zoom    | (available in all menus)
   U       Unzoom  | 

 XFOIL   c>   ...............................................

  G raphics-enable flag:        T
  S ize of plot object          10.00"
  A spect ratio of plot object   0.5500
  P age dimensions              11.00 x  8.50"
  M argins from page edges       0.00",  0.00"
  F ont size (relative)          0.0150
  W indow/screen size fraction   0.8000
  B lowup input method:        Cursor    
  O rientation of plot:        Landscape 
  C olor PostScript output?     F

      Option, Value   (or <Return>)    c>   ...............................................

  G raphics-enable flag:        F
  S ize of plot object          10.00"
  A spect ratio of plot object   0.5500
  P age dimensions              11.00 x  8.50"
  M argins from page edges       0.00",  0.00"
  F ont size (relative)          0.0150
  W indow/screen size fraction   0.8000
  B lowup input method:        Cursor    
  O rientation of plot:        Landscape 
  C olor PostScript output?     F

      Option, Value   (or <Return>)    c>  
 XFOIL   c>  
 Labeled airfoil file.  Name:  000004                                          

 Number of input coordinate points: 200
 Clockwise ordering
 Max thickness =     0.182844  at x =   0.219
 Max camber    =    -0.016242  at x =   0.062

  LE  x,y  =  -0.00001  -0.00109  |   Chord =   0.99989
  TE  x,y  =   0.99988   0.00003  |

 Current airfoil nodes set from buffer airfoil nodes ( 200 )

 XFOIL   c>  
 You are working with the buffer airfoil

.GDES   c>  
  i       x        y      angle
   2   0.9990   0.0002    0.002
   3   0.9978   0.0005    0.096
   4   0.9961   0.0009    0.111
   5   0.9938   0.0014    0.123
   6   0.9911   0.0019    0.151
   7   0.9880   0.0026    0.167
   8   0.9843   0.0034    0.192
   9   0.9801   0.0042    0.224
  10   0.9755   0.0052    0.204
  11   0.9704   0.0062    0.249
  12   0.9649   0.0073    0.239
  13   0.9589   0.0084    0.246
  14   0.9524   0.0096    0.264
  15   0.9455   0.0108    0.258
  16   0.9382   0.0121    0.250
  17   0.9304   0.0135    0.256
  18   0.9222   0.0148    0.243
  19   0.9135   0.0162    0.236
  20   0.9045   0.0177    0.231
  21   0.8951   0.0191    0.206
  22   0.8853   0.0206    0.204
  23   0.8751   0.0221    0.177
  24   0.8645   0.0236    0.162
  25   0.8536   0.0251    0.139
  26   0.8423   0.0267    0.130
  27   0.8307   0.0283    0.100
  28   0.8187   0.0299    0.083
  29   0.8065   0.0315    0.068
  30   0.7939   0.0332    0.044
  31   0.7810   0.0348    0.027
  32   0.7679   0.0365    0.009
  33   0.7545   0.0383   -0.001
  34   0.7409   0.0401   -0.013
  35   0.7270   0.0419   -0.028
  36   0.7129   0.0437   -0.033
  37   0.6986   0.0456   -0.040
  38   0.6841   0.0475   -0.039
  39   0.6694   0.0494   -0.033
  40   0.6545   0.0514   -0.037
  41   0.6395   0.0534   -0.024
  42   0.6243   0.0555   -0.013
  43   0.6091   0.0575    0.006
  44   0.5937   0.0596    0.020
  45   0.5782   0.0617    0.044
  46   0.5627   0.0637    0.066
  47   0.5471   0.0658    0.101
  48   0.5314   0.0678    0.126
  49   0.5157   0.0699    0.165
  50   0.5000   0.0718    0.198
  51   0.4843   0.0737    0.242
  52   0.4686   0.0756    0.283
  53   0.4529   0.0773    0.322
  54   0.4373   0.0790    0.366
  55   0.4218   0.0806    0.420
  56   0.4063   0.0820    0.456
  57   0.3909   0.0833    0.510
  58   0.3757   0.0845    0.552
  59   0.3605   0.0855    0.600
  60   0.3455   0.0863    0.648
  61   0.3306   0.0870    0.691
  62   0.3159   0.0874    0.734
  63   0.3014   0.0877    0.777
  64   0.2871   0.0878    0.820
  65   0.2730   0.0877    0.850
  66   0.2591   0.0874    0.896
  67   0.2455   0.0868    0.917
  68   0.2321   0.0861    0.954
  69   0.2190   0.0851    0.983
  70   0.2061   0.0840    1.007
  71   0.1935   0.0827    1.030
  72   0.1813   0.0811    1.052
  73   0.1693   0.0794    1.069
  74   0.1577   0.0775    1.096
  75   0.1464   0.0755    1.104
  76   0.1355   0.0733    1.129
  77   0.1249   0.0709    1.154
  78   0.1147   0.0684    1.176
  79   0.1049   0.0658    1.202
  80   0.0955   0.0631    1.244
  81   0.0865   0.0603    1.277
  82   0.0778   0.0573    1.334
  83   0.0696   0.0544    1.407
  84   0.0618   0.0513    1.479
  85   0.0545   0.0482    1.586
  86   0.0476   0.0451    1.714
  87   0.0411   0.0419    1.873
  88   0.0351   0.0387    2.075
  89   0.0296   0.0355    2.303
  90   0.0245   0.0323    2.622
  91   0.0199   0.0290    2.990
  92   0.0157   0.0258    3.448
  93   0.0120   0.0226    3.985
  94   0.0089   0.0193    4.679
  95   0.0062   0.0161    5.443
  96   0.0039   0.0129    6.291
  97   0.0022   0.0096    7.207
  98   0.0010   0.0064    7.981
  99   0.0002   0.0032    8.567
 100   0.0000   0.0000    6.544
 101   0.0002  -0.0066    4.298
 102   0.0010  -0.0131    4.309
 103   0.0022  -0.0196    4.344
 104   0.0039  -0.0260    4.357
 105   0.0062  -0.0323    4.386
 106   0.0089  -0.0384    4.416
 107   0.0120  -0.0443    4.410
 108   0.0157  -0.0500    4.408
 109   0.0199  -0.0555    4.383
 110   0.0245  -0.0607    4.309
 111   0.0296  -0.0657    4.222
 112   0.0351  -0.0703    4.109
 113   0.0411  -0.0747    3.959
 114   0.0476  -0.0787    3.788
 115   0.0545  -0.0824    3.596
 116   0.0618  -0.0858    3.376
 117   0.0696  -0.0888    3.169
 118   0.0778  -0.0915    2.933
 119   0.0865  -0.0938    2.711
 120   0.0955  -0.0958    2.493
 121   0.1049  -0.0974    2.263
 122   0.1147  -0.0987    2.066
 123   0.1249  -0.0997    1.863
 124   0.1355  -0.1004    1.679
 125   0.1464  -0.1008    1.493
 126   0.1577  -0.1009    1.331
 127   0.1693  -0.1007    1.176
 128   0.1813  -0.1003    1.040
 129   0.1935  -0.0996    0.899
 130   0.2061  -0.0988    0.785
 131   0.2190  -0.0977    0.671
 132   0.2321  -0.0965    0.568
 133   0.2455  -0.0951    0.480
 134   0.2591  -0.0935    0.387
 135   0.2730  -0.0919    0.321
 136   0.2871  -0.0901    0.242
 137   0.3014  -0.0882    0.192
 138   0.3159  -0.0863    0.130
 139   0.3306  -0.0843    0.084
 140   0.3455  -0.0823    0.046
 141   0.3605  -0.0802    0.007
 142   0.3757  -0.0781   -0.021
 143   0.3909  -0.0760   -0.051
 144   0.4063  -0.0739   -0.061
 145   0.4218  -0.0718   -0.084
 146   0.4373  -0.0697   -0.095
 147   0.4529  -0.0677   -0.101
 148   0.4686  -0.0656   -0.108
 149   0.4843  -0.0636   -0.104
 150   0.5000  -0.0616   -0.108
 151   0.5157  -0.0597   -0.101
 152   0.5314  -0.0577   -0.094
 153   0.5471  -0.0558   -0.092
 154   0.5627  -0.0539   -0.078
 155   0.5782  -0.0521   -0.069
 156   0.5937  -0.0503   -0.059
 157   0.6091  -0.0485   -0.046
 158   0.6243  -0.0467   -0.033
 159   0.6395  -0.0450   -0.027
 160   0.6545  -0.0433   -0.010
 161   0.6694  -0.0416    0.001
 162   0.6841  -0.0399    0.014
 163   0.6986  -0.0383    0.017
 164   0.7129  -0.0366    0.029
 165   0.7270  -0.0350    0.044
 166   0.7409  -0.0334    0.048
 167   0.7545  -0.0318    0.048
 168   0.7679  -0.0302    0.064
 169   0.7810  -0.0286    0.062
 170   0.7939  -0.0271    0.071
 171   0.8065  -0.0256    0.068
 172   0.8187  -0.0241    0.073
 173   0.8307  -0.0226    0.074
 174   0.8423  -0.0212    0.072
 175   0.8536  -0.0197    0.072
 176   0.8645  -0.0183    0.068
 177   0.8751  -0.0170    0.065
 178   0.8853  -0.0156    0.071
 179   0.8951  -0.0144    0.061
 180   0.9045  -0.0131    0.054
 181   0.9135  -0.0119    0.054
 182   0.9222  -0.0108    0.055
 183   0.9304  -0.0096    0.046
 184   0.9382  -0.0086    0.036
 185   0.9455  -0.0076    0.040
 186   0.9524  -0.0066    0.031
 187   0.9589  -0.0057    0.031
 188   0.9649  -0.0049    0.026
 189   0.9704  -0.0041    0.027
 190   0.9755  -0.0034    0.017
 191   0.9801  -0.0028    0.003
 192   0.9843  -0.0022    0.029
 193   0.9880  -0.0017    0.005
 194   0.9911  -0.0012    0.025
 195   0.9938  -0.0009   -0.012
 196   0.9961  -0.0006    0.023
 197   0.9978  -0.0003   -0.030
 198   0.9990  -0.0001    0.007
 199   0.9998  -0.0000    0.065

 Maximum panel corner angle =  8.567   at  i,x,y  =  99   0.0002   0.0032

 Enter corner angle criterion for refinement (deg):   4.284
 Enter type of spline parameter (1=uniform, 2=arclength):   1
 Enter refinement x limits:  -0.10000   1.10000
 Number of points added:           34
 Max thickness =     0.182860  at x =   0.219
 Max camber    =    -0.017254  at x =   0.062

 Maximum panel corner angle =  4.109   at  i,x,y  = 146   0.0351  -0.0703

.GDES   c>  
 Buffer airfoil is not identical to current airfoil

 XFOIL   c>  
 Blunt trailing edge.  Gap =  0.00025

 Paneling parameters used...
   Number of panel nodes       160
   Panel bunching parameter    1.000
   TE/LE panel density ratio   0.150
   Refined-area/LE panel density ratio    0.200
   Top    side refined area x/c limits  1.000 1.000
   Bottom side refined area x/c limits  1.000 1.000

 XFOIL   c>  
Enter output filename   s>  
 XFOIL   c>  
.OPERi   c>   Current iteration limit:          20

Enter new iteration limit   i>  
Enter new iteration limit   i>  
Enter new iteration limit   i>  
.OPERi   c>  
 M  =    0.0000
 Re =  0.3000E+06

.OPERv   c>  
 Sonic Cp =   -420.65      Sonic Q/Qinf =    22.825


.OPERv   c>  
 Polar  1 newly created for accumulation
 Airfoil archived with polar: 000004                                          

Enter  polar save filename  OR  <return> for no file   s>  
 New polar save file available

Enter  polar dump filename  OR  <return> for no file   s>  
 Polar dump file will NOT be written

 Polar accumulation enabled

.OPERva   c>   Calculating unit vorticity distributions ...
 Calculating wake trajectory ...
 Calculating source influence matrix ...

 Solving BL system ...

 Initializing BL ...
    side            1  ...
 MRCHUE: Inverse mode at  53     Hk =   4.044
 MRCHUE: Inverse mode at  54     Hk =   4.854
 MRCHUE: Inverse mode at  55     Hk =   5.655
 MRCHUE: Inverse mode at  56     Hk =   6.455
 MRCHUE: Inverse mode at  57     Hk =   7.257
 MRCHUE: Inverse mode at  58     Hk =   8.064
 MRCHUE: Inverse mode at  59     Hk =   8.880
 MRCHUE: Inverse mode at  60     Hk =   8.060
 MRCHUE: Inverse mode at  61     Hk =   4.727
 MRCHUE: Inverse mode at  62     Hk =   2.889
 MRCHUE: Convergence failed at  85  side 1    Res =  0.4429E+01
    side            2  ...
 MRCHUE: Inverse mode at  39     Hk =   4.186
 MRCHUE: Inverse mode at  40     Hk =   5.001
 MRCHUE: Inverse mode at  41     Hk =   5.833
 MRCHUE: Inverse mode at  42     Hk =   6.691
 MRCHUE: Inverse mode at  43     Hk =   7.581
 MRCHUE: Inverse mode at  44     Hk =   8.507
 MRCHUE: Inverse mode at  45     Hk =   9.471
 MRCHUE: Inverse mode at  46     Hk =   5.159
 MRCHUE: Inverse mode at  47     Hk =   2.708
 MRCHUE: Convergence failed at  77  side 2    Res =  0.4105E+01

 MRCHDU: Convergence failed at  85  side 1    Res =  0.4409E+01
 MRCHDU: Convergence failed at  77  side 2    Res =  0.1118E+01
 Side 1  free  transition at x/c =  0.4514   60
 Side 2  free  transition at x/c =  0.2776   46

   1   rms: 0.6839E+00   max: 0.3222E+01   D at   79  2   RLX: 0.466
       a =  2.000      CL =  0.2822
      Cm = -0.0399     CD =  0.00591   =>   CDf =  0.00867    CDp = -0.00276

 Side 1  free  transition at x/c =  0.4658   61
 Side 2  free  transition at x/c =  0.2835   46

   2   rms: 0.2218E+00   max: 0.9665E+00   D at   81  2
       a =  2.000      CL =  0.2665
      Cm = -0.0357     CD =  0.01187   =>   CDf =  0.00857    CDp =  0.00330

 Side 1  free  transition at x/c =  0.4777   60
 Side 2  free  transition at x/c =  0.2943   47

   3   rms: 0.2502E-01   max: -.1702E+00   D at   61  1
       a =  2.000      CL =  0.2633
      Cm = -0.0350     CD =  0.01390   =>   CDf =  0.00843    CDp =  0.00547

 Side 1  free  transition at x/c =  0.4806   61
 Side 2  free  transition at x/c =  0.2938   47

   4   rms: 0.2684E-02   max: -.4752E-01   D at   60  1
       a =  2.000      CL =  0.2629
      Cm = -0.0349     CD =  0.01385   =>   CDf =  0.00833    CDp =  0.00552

 Side 1  free  transition at x/c =  0.4805   61
 Side 2  free  transition at x/c =  0.2937   47

   5   rms: 0.1808E-03   max: 0.1809E-02   T at   61  1
       a =  2.000      CL =  0.2629
      Cm = -0.0349     CD =  0.01386   =>   CDf =  0.00831    CDp =  0.00554

 Side 1  free  transition at x/c =  0.4805   61
 Side 2  free  transition at x/c =  0.2937   47

   6   rms: 0.1802E-05   max: 0.1017E-04   T at   61  1
       a =  2.000      CL =  0.2629
      Cm = -0.0349     CD =  0.01386   =>   CDf =  0.00831    CDp =  0.00554

 Point added to stored polar  1
 Point written to save file  000004M0.04.log                                 
 Dump file unspecified or not available
 Calculating wake trajectory ...
 Calculating source influence matrix ...

 Solving BL system ...

 Side 1  free  transition at x/c =  0.4805   61
 Side 2  free  transition at x/c =  0.2937   47

   1   rms: 0.1517E+00   max: -.6528E+00   T at   47  2   RLX: 0.766
       a =  3.000      CL =  0.3498
      Cm = -0.0339     CD =  0.01457   =>   CDf =  0.00817    CDp =  0.00640

 MRCHDU: Convergence failed at  63  side 1    Res =  0.2514E+01
 MRCHDU: Convergence failed at  64  side 1    Res =  0.1601E+01
 MRCHDU: Convergence failed at  65  side 1    Res =  0.1289E+01
 MRCHDU: Convergence failed at  66  side 1    Res =  0.1613E+01
 MRCHDU: Convergence failed at  67  side 1    Res =  0.1740E+01
 MRCHDU: Convergence failed at  68  side 1    Res =  0.1932E+01
 MRCHDU: Convergence failed at  69  side 1    Res =  0.2162E+01
 MRCHDU: Convergence failed at  70  side 1    Res =  0.2424E+01
 MRCHDU: Convergence failed at  71  side 1    Res =  0.2769E+01
 MRCHDU: Convergence failed at  72  side 1    Res =  0.3093E+01
 MRCHDU: Convergence failed at  73  side 1    Res =  0.3454E+01
 MRCHDU: Convergence failed at  74  side 1    Res =  0.3879E+01
 MRCHDU: Convergence failed at  75  side 1    Res =  0.4420E+01
 MRCHDU: Convergence failed at  76  side 1    Res =  0.5141E+01
 MRCHDU: Convergence failed at  77  side 1    Res =  0.6078E+01
 MRCHDU: Convergence failed at  78  side 1    Res =  0.7529E+01
 MRCHDU: Convergence failed at  79  side 1    Res =  0.9847E+01
 MRCHDU: Convergence failed at  80  side 1    Res =  0.1470E+02
 MRCHDU: Convergence failed at  81  side 1    Res =  0.3146E+02
 MRCHDU: Convergence failed at  82  side 1    Res =  0.2006E+03
 MRCHDU: Convergence failed at  83  side 1    Res =  0.2352E+02
 MRCHDU: Convergence failed at  84  side 1    Res =  0.1022E+02
 MRCHDU: Convergence failed at  85  side 1    Res =  0.1529E+02
 MRCHDU: Convergence failed at  86  side 1    Res =  0.1753E+02
 MRCHDU: Convergence failed at  47  side 2    Res =  0.1442E+01
 MRCHDU: Convergence failed at  48  side 2    Res =  0.4843E+02
 MRCHDU: Convergence failed at  49  side 2    Res =  0.8954E+01
 MRCHDU: Convergence failed at  50  side 2    Res =  0.7560E+01
 MRCHDU: Convergence failed at  51  side 2    Res =  0.8337E+01
 MRCHDU: Convergence failed at  52  side 2    Res =  0.9898E+01
 MRCHDU: Convergence failed at  53  side 2    Res =  0.1229E+02
 MRCHDU: Convergence failed at  54  side 2    Res =  0.1622E+02
 MRCHDU: Convergence failed at  55  side 2    Res =  0.2210E+02
 MRCHDU: Convergence failed at  56  side 2    Res =  0.3395E+02
 MRCHDU: Convergence failed at  57  side 2    Res =  0.6499E+02
 MRCHDU: Convergence failed at  58  side 2    Res =  0.2471E+03
 MRCHDU: Convergence failed at  59  side 2    Res =  0.1596E+03
 MRCHDU: Convergence failed at  60  side 2    Res =  0.6321E+02
 MRCHDU: Convergence failed at  61  side 2    Res =  0.3931E+02
 MRCHDU: Convergence failed at  62  side 2    Res =  0.2922E+02
 MRCHDU: Convergence failed at  63  side 2    Res =  0.2304E+02
 MRCHDU: Convergence failed at  64  side 2    Res =  0.1946E+02
 MRCHDU: Convergence failed at  65  side 2    Res =  0.1681E+02
 MRCHDU: Convergence failed at  66  side 2    Res =  0.1502E+02
 MRCHDU: Convergence failed at  67  side 2    Res =  0.1351E+02
 MRCHDU: Convergence failed at  68  side 2    Res =  0.1224E+02
 MRCHDU: Convergence failed at  69  side 2    Res =  0.1107E+02
 MRCHDU: Convergence failed at  70  side 2    Res =  0.1011E+02
 MRCHDU: Convergence failed at  71  side 2    Res =  0.9210E+01
 MRCHDU: Convergence failed at  72  side 2    Res =  0.7153E+01
 MRCHDU: Convergence failed at  73  side 2    Res =  0.8440E+01
 MRCHDU: Convergence failed at  74  side 2    Res =  0.1075E+02
 MRCHDU: Convergence failed at  75  side 2    Res =  0.1465E+02
 MRCHDU: Convergence failed at  76  side 2    Res =  0.3037E+02
 Side 1  free  transition at x/c =  0.4615   62
 Side 2  free  transition at x/c =  0.3187   47

   2   rms: 0.6417E+00   max: 0.3857E+01   D at   78  2   RLX: 0.389
       a =  3.000      CL =  0.2771
      Cm = -0.0259     CD =  0.00621   =>   CDf =  0.00306    CDp =  0.00315

 MRCHDU: Convergence failed at  79  side 2    Res =  0.2739E+01
 MRCHDU: Convergence failed at  80  side 2    Res =  0.1504E+01
 Side 1  free  transition at x/c =  0.4552   60
 Side 2  free  transition at x/c =  0.3146   47

   3   rms: 0.1959E+00   max: -.9341E+00   D at   78  1   RLX: 0.535
       a =  3.000      CL =  0.2991
      Cm = -0.0151     CD =  0.01237   =>   CDf =  0.00896    CDp =  0.00341

 Side 1  free  transition at x/c =  0.4573   62
 Side 2  free  transition at x/c =  0.3175   47

   4   rms: 0.9360E-01   max: 0.3792E+00   D at   77  2
       a =  3.000      CL =  0.3743
      Cm = -0.0333     CD =  0.01334   =>   CDf =  0.00894    CDp =  0.00439

 Side 1  free  transition at x/c =  0.4554   61
 Side 2  free  transition at x/c =  0.3286   47

   5   rms: 0.1424E-01   max: 0.1512E+00   C at   47  2
       a =  3.000      CL =  0.3716
      Cm = -0.0327     CD =  0.01374   =>   CDf =  0.00807    CDp =  0.00567

 Side 1  free  transition at x/c =  0.4552   61
 Side 2  free  transition at x/c =  0.3242   47

   6   rms: 0.1328E-02   max: -.2173E-01   D at   48  2
       a =  3.000      CL =  0.3713
      Cm = -0.0327     CD =  0.01376   =>   CDf =  0.00811    CDp =  0.00565

 Side 1  free  transition at x/c =  0.4552   61
 Side 2  free  transition at x/c =  0.3239   47

   7   rms: 0.1288E-04   max: -.2604E-03   D at   48  2
       a =  3.000      CL =  0.3713
      Cm = -0.0327     CD =  0.01376   =>   CDf =  0.00811    CDp =  0.00565

 Point added to stored polar  1
 Point written to save file  000004M0.04.log                                 
 Dump file unspecified or not available
 Calculating wake trajectory ...
 Calculating source influence matrix ...

 Solving BL system ...

 Side 1  free  transition at x/c =  0.4552   61
 Side 2  free  transition at x/c =  0.3239   47

   1   rms: 0.1476E+00   max: -.6592E+00   T at   47  2   RLX: 0.758
       a =  4.000      CL =  0.4521
      Cm = -0.0307     CD =  0.01350   =>   CDf =  0.00803    CDp =  0.00547

 Side 1  free  transition at x/c =  0.4341   61
 Side 2  free  transition at x/c =  0.3489   47

   2   rms: 0.4579E-01   max: -.2987E+00   D at   62  1
       a =  4.000      CL =  0.4785
      Cm = -0.0301     CD =  0.01366   =>   CDf =  0.00796    CDp =  0.00570

 Side 1  free  transition at x/c =  0.4303   62
 Side 2  free  transition at x/c =  0.3603   46

   3   rms: 0.8473E-02   max: -.1204E+00   D at   46  2
       a =  4.000      CL =  0.4796
      Cm = -0.0303     CD =  0.01382   =>   CDf =  0.00795    CDp =  0.00587

 Side 1  free  transition at x/c =  0.4297   62
 Side 2  free  transition at x/c =  0.3628   47

   4   rms: 0.5826E-02   max: -.8097E-01   D at   46  2
       a =  4.000      CL =  0.4793
      Cm = -0.0302     CD =  0.01377   =>   CDf =  0.00793    CDp =  0.00585

 Side 1  free  transition at x/c =  0.4297   62
 Side 2  free  transition at x/c =  0.3638   47

   5   rms: 0.6276E-03   max: -.5954E-02   D at   48  2
       a =  4.000      CL =  0.4793
      Cm = -0.0302     CD =  0.01378   =>   CDf =  0.00789    CDp =  0.00589

 Side 1  free  transition at x/c =  0.4297   62
 Side 2  free  transition at x/c =  0.3635   47

   6   rms: 0.9486E-05   max: -.1115E-03   D at   48  2
       a =  4.000      CL =  0.4793
      Cm = -0.0302     CD =  0.01378   =>   CDf =  0.00789    CDp =  0.00589

 Point added to stored polar  1
 Point written to save file  000004M0.04.log                                 
 Dump file unspecified or not available
 Calculating wake trajectory ...
 Calculating source influence matrix ...

 Solving BL system ...

 Side 1  free  transition at x/c =  0.4297   62
 Side 2  free  transition at x/c =  0.3635   47

   1   rms: 0.1580E+00   max: 0.7701E+00   D at   47  2   RLX: 0.698
       a =  5.000      CL =  0.5515
      Cm = -0.0281     CD =  0.01335   =>   CDf =  0.00780    CDp =  0.00555

 Side 1  free  transition at x/c =  0.4107   62
 Side 2  free  transition at x/c =  0.4034   47

   2   rms: 0.5004E-01   max: -.2400E+00   C at   62  1
       a =  5.000      CL =  0.5847
      Cm = -0.0274     CD =  0.01369   =>   CDf =  0.00774    CDp =  0.00595

 Side 1  free  transition at x/c =  0.4028   62
 Side 2  free  transition at x/c =  0.4216   48

   3   rms: 0.8391E-02   max: -.1168E+00   C at   48  2
       a =  5.000      CL =  0.5847
      Cm = -0.0274     CD =  0.01371   =>   CDf =  0.00757    CDp =  0.00614

 Side 1  free  transition at x/c =  0.4032   62
 Side 2  free  transition at x/c =  0.4260   48

   4   rms: 0.5434E-03   max: -.9800E-02   C at   48  2
       a =  5.000      CL =  0.5848
      Cm = -0.0274     CD =  0.01372   =>   CDf =  0.00752    CDp =  0.00619

 Side 1  free  transition at x/c =  0.4032   62
 Side 2  free  transition at x/c =  0.4262   48

   5   rms: 0.2344E-05   max: -.3488E-04   D at   49  2
       a =  5.000      CL =  0.5848
      Cm = -0.0274     CD =  0.01372   =>   CDf =  0.00752    CDp =  0.00620

 Point added to stored polar  1
 Point written to save file  000004M0.04.log                                 
 Dump file unspecified or not available
 Calculating wake trajectory ...
 Calculating source influence matrix ...

 Solving BL system ...

 Side 1  free  transition at x/c =  0.4032   62
 Side 2  free  transition at x/c =  0.4262   48

   1   rms: 0.1571E+00   max: -.9799E+00   C at   48  2   RLX: 0.510
       a =  6.000      CL =  0.6383
      Cm = -0.0259     CD =  0.01368   =>   CDf =  0.00741    CDp =  0.00627

 Side 1  free  transition at x/c =  0.3872   62
 Side 2  free  transition at x/c =  0.4708   49

   2   rms: 0.1104E+00   max: -.1578E+01   C at   49  2   RLX: 0.317
       a =  6.000      CL =  0.6521
      Cm = -0.0250     CD =  0.01383   =>   CDf =  0.00740    CDp =  0.00643

 Side 1  free  transition at x/c =  0.3813   62
 Side 2  free  transition at x/c =  0.4837   50

   3   rms: 0.9205E-01   max: -.9578E+00   C at   50  2   RLX: 0.522
       a =  6.000      CL =  0.6686
      Cm = -0.0242     CD =  0.01353   =>   CDf =  0.00739    CDp =  0.00614

 Side 1  free  transition at x/c =  0.3758   62
 Side 2  free  transition at x/c =  0.5190   51

   4   rms: 0.8461E-01   max: -.1656E+01   C at   51  2   RLX: 0.302
       a =  6.000      CL =  0.6731
      Cm = -0.0241     CD =  0.01367   =>   CDf =  0.00722    CDp =  0.00645

 Side 1  free  transition at x/c =  0.3746   61
 Side 2  free  transition at x/c =  0.5301   51

   5   rms: 0.3443E-01   max: -.4573E+00   C at   51  2
       a =  6.000      CL =  0.6854
      Cm = -0.0237     CD =  0.01346   =>   CDf =  0.00723    CDp =  0.00623

 Side 1  free  transition at x/c =  0.3704   61
 Side 2  free  transition at x/c =  0.6741   57

   6   rms: 0.1961E+00   max: -.3813E+01   C at   57  2   RLX: 0.131
       a =  6.000      CL =  0.6797
      Cm = -0.0219     CD =  0.01292   =>   CDf =  0.00652    CDp =  0.00640

 Side 1  free  transition at x/c =  0.3707   61
 Side 2  free  transition at x/c =  0.6790   57

   7   rms: 0.1162E+00   max: -.2329E+01   C at   57  2   RLX: 0.215
       a =  6.000      CL =  0.6789
      Cm = -0.0221     CD =  0.01293   =>   CDf =  0.00654    CDp =  0.00639

 Side 1  free  transition at x/c =  0.3709   61
 Side 2  free  transition at x/c =  0.6887   58

   8   rms: 0.1053E+00   max: -.2140E+01   C at   58  2   RLX: 0.234
       a =  6.000      CL =  0.6774
      Cm = -0.0219     CD =  0.01287   =>   CDf =  0.00649    CDp =  0.00638

 Side 1  free  transition at x/c =  0.3712   61
 Side 2  free  transition at x/c =  0.7017   58

   9   rms: 0.9147E-01   max: -.1715E+01   C at   58  2   RLX: 0.291
       a =  6.000      CL =  0.6759
      Cm = -0.0217     CD =  0.01281   =>   CDf =  0.00638    CDp =  0.00642

 Side 1  free  transition at x/c =  0.3714   61
 Side 2  free  transition at x/c =  0.7136   59

  10   rms: 0.4363E-01   max: -.8501E+00   C at   59  2   RLX: 0.588
       a =  6.000      CL =  0.6746
      Cm = -0.0215     CD =  0.01276   =>   CDf =  0.00635    CDp =  0.00641

 Side 1  free  transition at x/c =  0.3717   61
 Side 2  free  transition at x/c =  0.7149   59

  11   rms: 0.8832E-02   max: -.1563E+00   C at   59  2
       a =  6.000      CL =  0.6752
      Cm = -0.0216     CD =  0.01282   =>   CDf =  0.00635    CDp =  0.00647

 Side 1  free  transition at x/c =  0.3716   61
 Side 2  free  transition at x/c =  0.7087   59

  12   rms: 0.5180E-02   max: -.1039E+00   C at   59  2
       a =  6.000      CL =  0.6756
      Cm = -0.0218     CD =  0.01285   =>   CDf =  0.00638    CDp =  0.00647

 Side 1  free  transition at x/c =  0.3716   61
 Side 2  free  transition at x/c =  0.7138   59

  13   rms: 0.1411E-03   max: 0.2668E-02   C at   59  2
       a =  6.000      CL =  0.6756
      Cm = -0.0218     CD =  0.01285   =>   CDf =  0.00636    CDp =  0.00650

 Side 1  free  transition at x/c =  0.3716   61
 Side 2  free  transition at x/c =  0.7137   59

  14   rms: 0.6887E-06   max: 0.7207E-05   C at   59  2
       a =  6.000      CL =  0.6756
      Cm = -0.0218     CD =  0.01285   =>   CDf =  0.00636    CDp =  0.00650

 Point added to stored polar  1
 Point written to save file  000004M0.04.log                                 
 Dump file unspecified or not available
 Calculating wake trajectory ...
 Calculating source influence matrix ...

 Solving BL system ...

 Side 1  free  transition at x/c =  0.3716   61
 Side 2  free  transition at x/c =  0.7137   59

   1   rms: 0.1536E+01   max: -.3059E+02   C at   59  2   RLX: 0.016
       a =  7.000      CL =  0.6759
      Cm = -0.0214     CD =  0.01277   =>   CDf =  0.00636    CDp =  0.00641

 Side 1  free  transition at x/c =  0.3711   61
 Side 2  free  transition at x/c =  0.7457   60

   2   rms: 0.1898E+01   max: -.3637E+02   C at   60  2   RLX: 0.014
       a =  7.000      CL =  0.6762
      Cm = -0.0210     CD =  0.01268   =>   CDf =  0.00624    CDp =  0.00645

 Side 1  free  transition at x/c =  0.3707   61
 Side 2  free  transition at x/c =  0.7597   61

   3   rms: 0.1498E+01   max: -.2955E+02   C at   61  2   RLX: 0.017
       a =  7.000      CL =  0.6773
      Cm = -0.0209     CD =  0.01264   =>   CDf =  0.00618    CDp =  0.00646

 Side 1  free  transition at x/c =  0.3702   61
 Side 2  free  transition at x/c =  0.7831   62

   4   rms: 0.1549E+01   max: -.3031E+02   C at   62  2   RLX: 0.016
       a =  7.000      CL =  0.6788
      Cm = -0.0208     CD =  0.01259   =>   CDf =  0.00610    CDp =  0.00649

 Side 1  free  transition at x/c =  0.3696   61
 Side 2  free  transition at x/c =  0.8057   63

   5   rms: 0.1625E+01   max: -.3141E+02   C at   63  2   RLX: 0.016
       a =  7.000      CL =  0.6810
      Cm = -0.0208     CD =  0.01255   =>   CDf =  0.00592    CDp =  0.00664

 Side 1  free  transition at x/c =  0.3690   62
 Side 2  free  transition at x/c =  0.8320   63

   6   rms: 0.1872E+01   max: -.3445E+02   C at   63  2   RLX: 0.015
       a =  7.000      CL =  0.6853
      Cm = -0.0213     CD =  0.01253   =>   CDf =  0.00594    CDp =  0.00659

 Side 1  free  transition at x/c =  0.3681   62
 Side 2  free  transition at x/c =  0.8616   64

   7   rms: 0.1502E+01   max: -.2602E+02   C at   64  2   RLX: 0.019
       a =  7.000      CL =  0.6939
      Cm = -0.0224     CD =  0.01253   =>   CDf =  0.00587    CDp =  0.00666

 Side 1  free  transition at x/c =  0.3667   62
 Side 2  free  transition at x/c =  0.8951   66

   8   rms: 0.1518E+01   max: -.2042E+02   C at   66  2   RLX: 0.024
       a =  7.000      CL =  0.7161
      Cm = -0.0263     CD =  0.01257   =>   CDf =  0.00582    CDp =  0.00675

 Side 1  free  transition at x/c =  0.3635   62
 Side 2  free  transition at x/c =  0.9148   66

   9   rms: 0.1540E+00   max: 0.5861E+00   C at   70  2   RLX: 0.934
       a =  7.000      CL =  0.7895
      Cm = -0.0195     CD =  0.01301   =>   CDf =  0.00572    CDp =  0.00730

 Side 1  free  transition at x/c =  0.3357   61
 Side 2 forced transition at x/c =  1.0001   70

  10   rms: 0.1122E+00   max: 0.8568E+00   D at   65  2   RLX: 0.893
       a =  7.000      CL =  0.8605
      Cm = -0.0342     CD =  0.01271   =>   CDf =  0.00606    CDp =  0.00664

 Side 1  free  transition at x/c =  0.3277   61
 Side 2 forced transition at x/c =  1.0001   70

  11   rms: 0.3125E-01   max: 0.3389E+00   D at   67  2
       a =  7.000      CL =  0.8710
      Cm = -0.0361     CD =  0.01317   =>   CDf =  0.00592    CDp =  0.00725

 Side 1  free  transition at x/c =  0.3239   61
 Side 2 forced transition at x/c =  1.0001   70

  12   rms: 0.1044E-01   max: 0.1212E+00   D at   67  2
       a =  7.000      CL =  0.8750
      Cm = -0.0368     CD =  0.01323   =>   CDf =  0.00593    CDp =  0.00730

 Side 1  free  transition at x/c =  0.3234   61
 Side 2 forced transition at x/c =  1.0001   70

  13   rms: 0.9407E-03   max: 0.1070E-01   D at   66  2
       a =  7.000      CL =  0.8754
      Cm = -0.0368     CD =  0.01325   =>   CDf =  0.00592    CDp =  0.00733

 Side 1  free  transition at x/c =  0.3233   61
 Side 2 forced transition at x/c =  1.0001   70

  14   rms: 0.1235E-04   max: 0.1132E-03   D at    2  2
       a =  7.000      CL =  0.8754
      Cm = -0.0368     CD =  0.01325   =>   CDf =  0.00592    CDp =  0.00733

 Point added to stored polar  1
 Point written to save file  000004M0.04.log                                 
 Dump file unspecified or not available
 Calculating wake trajectory ...
 Calculating source influence matrix ...

 Solving BL system ...

 Side 1  free  transition at x/c =  0.3233   61
 Side 2 forced transition at x/c =  1.0001   70

   1   rms: 0.1431E+00   max: -.6670E+00   D at   62  1   RLX: 0.750
       a =  8.000      CL =  0.9347
      Cm = -0.0313     CD =  0.01388   =>   CDf =  0.00586    CDp =  0.00802

 Side 1  free  transition at x/c =  0.2927   60
 Side 2 forced transition at x/c =  1.0001   69

   2   rms: 0.4151E-01   max: -.2932E+00   D at   60  1
       a =  8.000      CL =  0.9557
      Cm = -0.0296     CD =  0.01409   =>   CDf =  0.00597    CDp =  0.00812

 Side 1  free  transition at x/c =  0.2793   60
 Side 2 forced transition at x/c =  1.0001   68

   3   rms: 0.6647E-02   max: -.8593E-01   C at   60  1
       a =  8.000      CL =  0.9548
      Cm = -0.0294     CD =  0.01405   =>   CDf =  0.00608    CDp =  0.00797

 Side 1  free  transition at x/c =  0.2811   60
 Side 2 forced transition at x/c =  1.0001   68

   4   rms: 0.3614E-03   max: -.6508E-02   D at   62  1
       a =  8.000      CL =  0.9549
      Cm = -0.0295     CD =  0.01405   =>   CDf =  0.00605    CDp =  0.00801

 Side 1  free  transition at x/c =  0.2809   60
 Side 2 forced transition at x/c =  1.0001   68

   5   rms: 0.1665E-05   max: -.2077E-04   D at   62  1
       a =  8.000      CL =  0.9549
      Cm = -0.0295     CD =  0.01405   =>   CDf =  0.00605    CDp =  0.00800

 Point added to stored polar  1
 Point written to save file  000004M0.04.log                                 
 Dump file unspecified or not available
 Calculating wake trajectory ...
 Calculating source influence matrix ...

 Solving BL system ...

 Side 1  free  transition at x/c =  0.2809   60
 Side 2 forced transition at x/c =  1.0001   68

   1   rms: 0.1359E+00   max: 0.4820E+00   T at   60  1
       a =  9.000      CL =  1.0394
      Cm = -0.0228     CD =  0.01474   =>   CDf =  0.00598    CDp =  0.00877

 Side 1  free  transition at x/c =  0.2178   57
 Side 2 forced transition at x/c =  1.0001   67

   2   rms: 0.3586E-01   max: -.5288E+00   D at   58  1   RLX: 0.946
       a =  9.000      CL =  1.0269
      Cm = -0.0211     CD =  0.01536   =>   CDf =  0.00636    CDp =  0.00900

 Side 1  free  transition at x/c =  0.2256   58
 Side 2 forced transition at x/c =  1.0001   67

   3   rms: 0.8480E-02   max: 0.1382E+00   C at   58  1
       a =  9.000      CL =  1.0262
      Cm = -0.0210     CD =  0.01536   =>   CDf =  0.00623    CDp =  0.00913

 Side 1  free  transition at x/c =  0.2209   58
 Side 2 forced transition at x/c =  1.0001   67

   4   rms: 0.8852E-03   max: -.1258E-01   C at   58  1
       a =  9.000      CL =  1.0259
      Cm = -0.0210     CD =  0.01537   =>   CDf =  0.00629    CDp =  0.00908

 Side 1  free  transition at x/c =  0.2212   58
 Side 2 forced transition at x/c =  1.0001   67

   5   rms: 0.6114E-05   max: -.1242E-03   D at   59  1
       a =  9.000      CL =  1.0259
      Cm = -0.0210     CD =  0.01537   =>   CDf =  0.00629    CDp =  0.00909

 Point added to stored polar  1
 Point written to save file  000004M0.04.log                                 
 Dump file unspecified or not available
 Calculating wake trajectory ...
 Calculating source influence matrix ...

 Solving BL system ...

 Side 1  free  transition at x/c =  0.2212   58
 Side 2 forced transition at x/c =  1.0001   67

   1   rms: 0.1690E+00   max: 0.1505E+01   C at   58  1   RLX: 0.464
       a = 10.000      CL =  1.0495
      Cm = -0.0158     CD =  0.01647   =>   CDf =  0.00630    CDp =  0.01017

 Side 1  free  transition at x/c =  0.1870   55
 Side 2 forced transition at x/c =  1.0001   67

   2   rms: 0.8622E-01   max: 0.5320E+00   C at   55  1
       a = 10.000      CL =  1.0912
      Cm = -0.0123     CD =  0.01745   =>   CDf =  0.00635    CDp =  0.01109

 Side 1  free  transition at x/c =  0.1390   52
 Side 2 forced transition at x/c =  1.0001   66

   3   rms: 0.2554E-01   max: -.2179E+00   D at   56  1
       a = 10.000      CL =  1.0799
      Cm = -0.0110     CD =  0.01792   =>   CDf =  0.00677    CDp =  0.01115

 Side 1  free  transition at x/c =  0.1386   52
 Side 2 forced transition at x/c =  1.0001   66

   4   rms: 0.3463E-02   max: 0.6200E-01   C at   52  1
       a = 10.000      CL =  1.0787
      Cm = -0.0108     CD =  0.01801   =>   CDf =  0.00675    CDp =  0.01126

 Side 1  free  transition at x/c =  0.1375   52
 Side 2 forced transition at x/c =  1.0001   66

   5   rms: 0.6690E-04   max: -.9106E-03   C at   52  1
       a = 10.000      CL =  1.0787
      Cm = -0.0108     CD =  0.01801   =>   CDf =  0.00676    CDp =  0.01125

 Point added to stored polar  1
 Point written to save file  000004M0.04.log                                 
 Dump file unspecified or not available
 Calculating wake trajectory ...
 Calculating source influence matrix ...

 Solving BL system ...

 Side 1  free  transition at x/c =  0.1375   52
 Side 2 forced transition at x/c =  1.0001   66

   1   rms: 0.2001E+00   max: 0.2755E+01   C at   52  1   RLX: 0.464
       a = 11.000      CL =  1.0997
      Cm = -0.0060     CD =  0.01962   =>   CDf =  0.00662    CDp =  0.01300

 Side 1  free  transition at x/c =  0.1091   50
 Side 2 forced transition at x/c =  1.0001   65

   2   rms: 0.8718E-01   max: 0.4441E+00   T at   50  1
       a = 11.000      CL =  1.1245
      Cm = -0.0009     CD =  0.02141   =>   CDf =  0.00700    CDp =  0.01441

 Side 1  free  transition at x/c =  0.0876   48
 Side 2 forced transition at x/c =  1.0001   65

   3   rms: 0.3445E-01   max: -.4405E+00   D at   48  1
       a = 11.000      CL =  1.1098
      Cm =  0.0008     CD =  0.02176   =>   CDf =  0.00716    CDp =  0.01460

 Side 1  free  transition at x/c =  0.0911   48
 Side 2 forced transition at x/c =  1.0001   65

   4   rms: 0.8557E-02   max: 0.1306E+00   C at   48  1
       a = 11.000      CL =  1.1112
      Cm =  0.0006     CD =  0.02177   =>   CDf =  0.00705    CDp =  0.01472

 Side 1  free  transition at x/c =  0.0897   48
 Side 2 forced transition at x/c =  1.0001   65

   5   rms: 0.5061E-03   max: -.3845E-02   D at   49  1
       a = 11.000      CL =  1.1109
      Cm =  0.0006     CD =  0.02177   =>   CDf =  0.00707    CDp =  0.01470

 Side 1  free  transition at x/c =  0.0897   48
 Side 2 forced transition at x/c =  1.0001   65

   6   rms: 0.7226E-05   max: 0.4280E-04   C at   65  2
       a = 11.000      CL =  1.1109
      Cm =  0.0006     CD =  0.02177   =>   CDf =  0.00707    CDp =  0.01470

 Point added to stored polar  1
 Point written to save file  000004M0.04.log                                 
 Dump file unspecified or not available
 Calculating wake trajectory ...
 Calculating source influence matrix ...

 Solving BL system ...

 Side 1  free  transition at x/c =  0.0897   48
 Side 2 forced transition at x/c =  1.0001   65

   1   rms: 0.1638E+00   max: 0.1032E+01   C at   48  1   RLX: 0.646
       a = 12.000      CL =  1.1258
      Cm =  0.0075     CD =  0.02484   =>   CDf =  0.00687    CDp =  0.01797

 Side 1  free  transition at x/c =  0.0773   47
 Side 2 forced transition at x/c =  1.0001   64

   2   rms: 0.6587E-01   max: 0.3070E+00   T at   47  1
       a = 12.000      CL =  1.1344
      Cm =  0.0093     CD =  0.02702   =>   CDf =  0.00715    CDp =  0.01987

 Side 1  free  transition at x/c =  0.0705   46
 Side 2 forced transition at x/c =  1.0001   64

   3   rms: 0.1814E-01   max: -.2184E+00   D at   46  1
       a = 12.000      CL =  1.1325
      Cm =  0.0086     CD =  0.02717   =>   CDf =  0.00713    CDp =  0.02004

 Side 1  free  transition at x/c =  0.0715   46
 Side 2 forced transition at x/c =  1.0001   64

   4   rms: 0.2400E-02   max: 0.1779E-01   T at   46  1
       a = 12.000      CL =  1.1337
      Cm =  0.0085     CD =  0.02712   =>   CDf =  0.00705    CDp =  0.02007

 Side 1  free  transition at x/c =  0.0712   46
 Side 2 forced transition at x/c =  1.0001   64

   5   rms: 0.1093E-03   max: -.6928E-03   C at   46  1
       a = 12.000      CL =  1.1337
      Cm =  0.0085     CD =  0.02713   =>   CDf =  0.00706    CDp =  0.02006

 Side 1  free  transition at x/c =  0.0712   46
 Side 2 forced transition at x/c =  1.0001   64

   6   rms: 0.3254E-05   max: -.1165E-04   D at   88  1
       a = 12.000      CL =  1.1337
      Cm =  0.0085     CD =  0.02712   =>   CDf =  0.00706    CDp =  0.02006

 Point added to stored polar  1
 Point written to save file  000004M0.04.log                                 
 Dump file unspecified or not available
 Calculating wake trajectory ...
 Calculating source influence matrix ...

 Solving BL system ...

 Side 1  free  transition at x/c =  0.0712   46
 Side 2 forced transition at x/c =  1.0001   64

   1   rms: 0.1471E+00   max: 0.6927E+00   T at   46  1   RLX: 0.985
       a = 13.000      CL =  1.1637
      Cm =  0.0124     CD =  0.03351   =>   CDf =  0.00682    CDp =  0.02668

 MRCHDU: Convergence failed at  47  side 1    Res =  0.1278E+02
 MRCHDU: Convergence failed at  48  side 1    Res =  0.1529E+01
 MRCHDU: Convergence failed at  49  side 1    Res =  0.1607E+01
 MRCHDU: Convergence failed at  50  side 1    Res =  0.1473E+01
 MRCHDU: Convergence failed at  51  side 1    Res =  0.1518E+01
 MRCHDU: Convergence failed at  52  side 1    Res =  0.1619E+01
 MRCHDU: Convergence failed at  53  side 1    Res =  0.1579E+01
 MRCHDU: Convergence failed at  54  side 1    Res =  0.1662E+01
 MRCHDU: Convergence failed at  55  side 1    Res =  0.1545E+01
 MRCHDU: Convergence failed at  56  side 1    Res =  0.1704E+01
 MRCHDU: Convergence failed at  57  side 1    Res =  0.1888E+01
 MRCHDU: Convergence failed at  58  side 1    Res =  0.2108E+01
 MRCHDU: Convergence failed at  59  side 1    Res =  0.2362E+01
 MRCHDU: Convergence failed at  60  side 1    Res =  0.2656E+01
 MRCHDU: Convergence failed at  61  side 1    Res =  0.2983E+01
 MRCHDU: Convergence failed at  62  side 1    Res =  0.3346E+01
 MRCHDU: Convergence failed at  63  side 1    Res =  0.3616E+01
 MRCHDU: Convergence failed at  64  side 1    Res =  0.3611E+01
 MRCHDU: Convergence failed at  65  side 1    Res =  0.3841E+01
 MRCHDU: Convergence failed at  66  side 1    Res =  0.4009E+01
 MRCHDU: Convergence failed at  67  side 1    Res =  0.1096E+02
 MRCHDU: Convergence failed at  68  side 1    Res =  0.1325E+02
 MRCHDU: Convergence failed at  69  side 1    Res =  0.1849E+02
 MRCHDU: Convergence failed at  70  side 1    Res =  0.2458E+02
 MRCHDU: Convergence failed at  71  side 1    Res =  0.2683E+02
 MRCHDU: Convergence failed at  72  side 1    Res =  0.2242E+02
 MRCHDU: Convergence failed at  73  side 1    Res =  0.2641E+02
 MRCHDU: Convergence failed at  74  side 1    Res =  0.1043E+03
 MRCHDU: Convergence failed at  75  side 1    Res =  0.2256E+03
 MRCHDU: Convergence failed at  76  side 1    Res =  0.5584E+02
 MRCHDU: Convergence failed at  77  side 1    Res =  0.1122E+02
 MRCHDU: Convergence failed at  78  side 1    Res =  0.1697E+02
 MRCHDU: Convergence failed at  79  side 1    Res =  0.1861E+02
 MRCHDU: Convergence failed at  80  side 1    Res =  0.4120E+02
 MRCHDU: Convergence failed at  81  side 1    Res =  0.4691E+02
 MRCHDU: Convergence failed at  82  side 1    Res =  0.9641E+03
 MRCHDU: Convergence failed at  83  side 1    Res =  0.2837E+02
 MRCHDU: Convergence failed at  84  side 1    Res =  0.3007E+02
 MRCHDU: Convergence failed at  85  side 1    Res =  0.1316E+02
 MRCHDU: Convergence failed at  86  side 1    Res =  0.1339E+02
 MRCHDU: Convergence failed at  87  side 1    Res =  0.2264E+02
 MRCHDU: Convergence failed at  88  side 1    Res =  0.4790E+02
 MRCHDU: Convergence failed at  89  side 1    Res =  0.6313E+02
 MRCHDU: Convergence failed at  90  side 1    Res =  0.7698E+02
 MRCHDU: Convergence failed at  91  side 1    Res =  0.3877E+02
 MRCHDU: Convergence failed at  92  side 1    Res =  0.2352E+02
 MRCHDU: Convergence failed at  93  side 1    Res =  0.2095E+02
 MRCHDU: Convergence failed at  94  side 1    Res =  0.1629E+02
 MRCHDU: Convergence failed at  95  side 1    Res =  0.1781E+02
 MRCHDU: Convergence failed at  96  side 1    Res =  0.1903E+02
 MRCHDU: Convergence failed at  97  side 1    Res =  0.2067E+02
 MRCHDU: Convergence failed at  98  side 1    Res =  0.2241E+02
 MRCHDU: Convergence failed at  99  side 1    Res =  0.2658E+02
 Side 1  free  transition at x/c =  0.0607   45
 Side 2 forced transition at x/c =  1.0001   63

   2   rms: 0.1386E+01   max: 0.5526E+01   D at   99  1   RLX: 0.271
       a = 13.000      CL =  2.4449
      Cm = -0.4838     CD =  0.00996   =>   CDf =  0.00275    CDp =  0.00721

 MRCHDU: Convergence failed at  78  side 1    Res =  0.5604E-01
 MRCHDU: Convergence failed at  68  side 2    Res =  0.3198E+01
 MRCHDU: Convergence failed at  69  side 2    Res =  0.3257E+01
 Side 1  free  transition at x/c =  0.0573   45
 Side 2 forced transition at x/c =  1.0001   63

   3   rms: 0.4465E+00   max: 0.5863E+00   C at   63  2   RLX: 0.445
       a = 13.000      CL =  1.7259
      Cm = -0.1676     CD =  0.03331   =>   CDf =  0.00820    CDp =  0.02510

 Side 1  free  transition at x/c =  0.0570   45
 Side 2 forced transition at x/c =  1.0001   63

   4   rms: 0.3621E+00   max: -.1795E+01   D at   70  1   RLX: 0.279
       a = 13.000      CL =  1.5786
      Cm = -0.1065     CD =  0.03175   =>   CDf =  0.00755    CDp =  0.02420

 Side 1  free  transition at x/c =  0.0570   45
 Side 2 forced transition at x/c =  1.0001   63

   5   rms: 0.2482E+00   max: -.4254E+00   D at   64  2   RLX: 0.633
       a = 13.000      CL =  1.4048
      Cm = -0.0269     CD =  0.02476   =>   CDf =  0.00777    CDp =  0.01700

 MRCHDU: Convergence failed at  81  side 1    Res =  0.3182E+00
 MRCHDU: Convergence failed at  82  side 1    Res =  0.4089E+00
 MRCHDU: Convergence failed at  83  side 1    Res =  0.4669E+00
 MRCHDU: Convergence failed at  85  side 1    Res =  0.1794E+01
 MRCHDU: Convergence failed at  86  side 1    Res =  0.3211E+01
 MRCHDU: Convergence failed at  87  side 1    Res =  0.8964E+02
 MRCHDU: Convergence failed at  88  side 1    Res =  0.2763E+01
 MRCHDU: Convergence failed at  89  side 1    Res =  0.1727E+01
 MRCHDU: Convergence failed at  90  side 1    Res =  0.1316E+01
 MRCHDU: Convergence failed at  91  side 1    Res =  0.1290E+01
 MRCHDU: Convergence failed at  92  side 1    Res =  0.1784E+01
 MRCHDU: Convergence failed at  93  side 1    Res =  0.2564E+01
 MRCHDU: Convergence failed at  94  side 1    Res =  0.4517E+01
 MRCHDU: Convergence failed at  95  side 1    Res =  0.1479E+02
 MRCHDU: Convergence failed at  96  side 1    Res =  0.8871E+01
 MRCHDU: Convergence failed at  97  side 1    Res =  0.4112E+01
 MRCHDU: Convergence failed at  98  side 1    Res =  0.2824E+01
 MRCHDU: Convergence failed at  99  side 1    Res =  0.2151E+01
 MRCHDU: Convergence failed at 100  side 1    Res =  0.1902E+01
 Side 1  free  transition at x/c =  0.0559   45
 Side 2 forced transition at x/c =  1.0001   62

   6   rms: 0.2155E+00   max: 0.8759E+00   D at   63  2
       a = 13.000      CL =  1.3502
      Cm =  0.0007     CD =  0.02224   =>   CDf =  0.00838    CDp =  0.01386

 MRCHDU: Convergence failed at  87  side 1    Res =  0.1835E+03
 MRCHDU: Convergence failed at  88  side 1    Res =  0.3728E+01
 MRCHDU: Convergence failed at  89  side 1    Res =  0.2205E+01
 MRCHDU: Convergence failed at  90  side 1    Res =  0.1665E+01
 MRCHDU: Convergence failed at  91  side 1    Res =  0.1400E+01
 MRCHDU: Convergence failed at  92  side 1    Res =  0.1382E+01
 MRCHDU: Convergence failed at  93  side 1    Res =  0.1783E+01
 MRCHDU: Convergence failed at  94  side 1    Res =  0.2222E+01
 MRCHDU: Convergence failed at  95  side 1    Res =  0.2930E+01
 MRCHDU: Convergence failed at  96  side 1    Res =  0.4116E+01
 MRCHDU: Convergence failed at  97  side 1    Res =  0.6175E+01
 MRCHDU: Convergence failed at  98  side 1    Res =  0.1211E+02
 MRCHDU: Convergence failed at  99  side 1    Res =  0.3360E+02
 MRCHDU: Convergence failed at 100  side 1    Res =  0.6196E+03
 Side 1  free  transition at x/c =  0.0519   45
 Side 2 forced transition at x/c =  1.0001   62

   7   rms: 0.1946E+00   max: 0.9485E+00   D at  100  1
       a = 13.000      CL =  1.2841
      Cm = -0.0012     CD =  0.02717   =>   CDf =  0.00789    CDp =  0.01928

 Side 1  free  transition at x/c =  0.0546   44
 Side 2 forced transition at x/c =  1.0001   63

   8   rms: 0.2358E+00   max: -.1096E+01   C at   63  2   RLX: 0.456
       a = 13.000      CL =  1.2060
      Cm =  0.0002     CD =  0.03143   =>   CDf =  0.00734    CDp =  0.02409

 Side 1  free  transition at x/c =  0.0591   45
 Side 2 forced transition at x/c =  1.0001   63

   9   rms: 0.6384E-01   max: 0.3405E+00   D at   68  2
       a = 13.000      CL =  1.1493
      Cm =  0.0098     CD =  0.03608   =>   CDf =  0.00703    CDp =  0.02905

 Side 1  free  transition at x/c =  0.0608   45
 Side 2 forced transition at x/c =  1.0001   63

  10   rms: 0.8757E-02   max: -.8236E-01   D at   46  1
       a = 13.000      CL =  1.1453
      Cm =  0.0099     CD =  0.03618   =>   CDf =  0.00698    CDp =  0.02920

 Side 1  free  transition at x/c =  0.0614   45
 Side 2 forced transition at x/c =  1.0001   63

  11   rms: 0.5841E-03   max: -.3899E-02   D at   83  1
       a = 13.000      CL =  1.1456
      Cm =  0.0099     CD =  0.03612   =>   CDf =  0.00696    CDp =  0.02916

 Side 1  free  transition at x/c =  0.0614   45
 Side 2 forced transition at x/c =  1.0001   63

  12   rms: 0.2943E-04   max: -.1140E-03   D at   70  2
       a = 13.000      CL =  1.1456
      Cm =  0.0099     CD =  0.03613   =>   CDf =  0.00696    CDp =  0.02916

 Point added to stored polar  1
 Point written to save file  000004M0.04.log                                 
 Dump file unspecified or not available
 Calculating wake trajectory ...
 Calculating source influence matrix ...

 Solving BL system ...

 Side 1  free  transition at x/c =  0.0614   45
 Side 2 forced transition at x/c =  1.0001   63

   1   rms: 0.1369E+00   max: 0.6901E+00   T at   45  1   RLX: 0.819
       a = 14.000      CL =  1.1772
      Cm =  0.0093     CD =  0.04313   =>   CDf =  0.00698    CDp =  0.03615

 Side 1  free  transition at x/c =  0.0539   44
 Side 2 forced transition at x/c =  1.0001   63

   2   rms: 0.5246E-01   max: -.2996E+00   D at   44  1
       a = 14.000      CL =  1.1514
      Cm =  0.0080     CD =  0.04760   =>   CDf =  0.00702    CDp =  0.04058

 Side 1  free  transition at x/c =  0.0549   44
 Side 2 forced transition at x/c =  1.0001   63

   3   rms: 0.1108E-01   max: -.7491E-01   D at   80  1
       a = 14.000      CL =  1.1580
      Cm =  0.0089     CD =  0.04632   =>   CDf =  0.00675    CDp =  0.03958

 Side 1  free  transition at x/c =  0.0544   44
 Side 2 forced transition at x/c =  1.0001   63

   4   rms: 0.3522E-03   max: -.2647E-02   D at   44  1
       a = 14.000      CL =  1.1581
      Cm =  0.0089     CD =  0.04644   =>   CDf =  0.00678    CDp =  0.03967

 Side 1  free  transition at x/c =  0.0544   44
 Side 2 forced transition at x/c =  1.0001   63

   5   rms: 0.2782E-04   max: -.1114E-03   D at   77  1
       a = 14.000      CL =  1.1581
      Cm =  0.0089     CD =  0.04644   =>   CDf =  0.00677    CDp =  0.03967

 Point added to stored polar  1
 Point written to save file  000004M0.04.log                                 
 Dump file unspecified or not available
 Calculating wake trajectory ...
 Calculating source influence matrix ...

 Solving BL system ...

 Side 1  free  transition at x/c =  0.0544   44
 Side 2 forced transition at x/c =  1.0001   63

   1   rms: 0.1238E+00   max: 0.5326E+00   T at   44  1   RLX: 0.677
       a = 15.000      CL =  1.1717
      Cm =  0.0079     CD =  0.05386   =>   CDf =  0.00651    CDp =  0.04735

 Side 1  free  transition at x/c =  0.0504   44
 Side 2 forced transition at x/c =  1.0001   62

   2   rms: 0.4050E-01   max: 0.1746E+00   D at   72  2
       a = 15.000      CL =  1.1662
      Cm =  0.0072     CD =  0.05786   =>   CDf =  0.00682    CDp =  0.05103

 Side 1  free  transition at x/c =  0.0492   44
 Side 2 forced transition at x/c =  1.0001   62

   3   rms: 0.3602E-02   max: -.3385E-01   D at   78  1
       a = 15.000      CL =  1.1662
      Cm =  0.0077     CD =  0.05715   =>   CDf =  0.00663    CDp =  0.05052

 Side 1  free  transition at x/c =  0.0493   44
 Side 2 forced transition at x/c =  1.0001   62

   4   rms: 0.3965E-03   max: -.1362E-02   D at   72  2
       a = 15.000      CL =  1.1665
      Cm =  0.0077     CD =  0.05717   =>   CDf =  0.00663    CDp =  0.05054

 Side 1  free  transition at x/c =  0.0493   44
 Side 2 forced transition at x/c =  1.0001   62

   5   rms: 0.1207E-04   max: -.8713E-04   D at   73  2
       a = 15.000      CL =  1.1665
      Cm =  0.0077     CD =  0.05718   =>   CDf =  0.00663    CDp =  0.05055

 Point added to stored polar  1
 Point written to save file  000004M0.04.log                                 
 Dump file unspecified or not available

.OPERva   c>  
 XFOIL   c>  
0.1
resp: 
 ===================================================
  XFOIL Version 6.97
  Copyright (C) 2000   Mark Drela, Harold Youngren

  This software comes with ABSOLUTELY NO WARRANTY,
    subject to the GNU General Public License.

  Caveat computor
 ===================================================

 File  xfoil.def  not found

   QUIT    Exit program

  .OPER    Direct operating point(s)
  .MDES    Complex mapping design routine
  .QDES    Surface speed design routine
  .GDES    Geometry design routine

   SAVE f  Write airfoil to labeled coordinate file
   PSAV f  Write airfoil to plain coordinate file
   ISAV f  Write airfoil to ISES coordinate file
   MSAV f  Write airfoil to MSES coordinate file
   REVE    Reverse written-airfoil node ordering
   DELI i  Change written-airfoil file delimiters

   LOAD f  Read buffer airfoil from coordinate file
   NACA i  Set NACA 4,5-digit airfoil and buffer airfoil
   INTE    Set buffer airfoil by interpolating two airfoils
   NORM    Buffer airfoil normalization toggle
   HALF    Halve the number of points in buffer airfoil
   XYCM rr Change CM reference location, currently  0.25000 0.00000

   BEND    Display structural properties of current airfoil

   PCOP    Set current-airfoil panel nodes directly from buffer airfoil points
   PANE    Set current-airfoil panel nodes ( 160 ) based on curvature
  .PPAR    Show/change paneling

  .PLOP    Plotting options

   WDEF f  Write  current-settings file
   RDEF f  Reread current-settings file
   NAME s  Specify new airfoil name
   NINC    Increment name version number

   Z       Zoom    | (available in all menus)
   U       Unzoom  | 

 XFOIL   c>   ...............................................

  G raphics-enable flag:        T
  S ize of plot object          10.00"
  A spect ratio of plot object   0.5500
  P age dimensions              11.00 x  8.50"
  M argins from page edges       0.00",  0.00"
  F ont size (relative)          0.0150
  W indow/screen size fraction   0.8000
  B lowup input method:        Cursor    
  O rientation of plot:        Landscape 
  C olor PostScript output?     F

      Option, Value   (or <Return>)    c>   ...............................................

  G raphics-enable flag:        F
  S ize of plot object          10.00"
  A spect ratio of plot object   0.5500
  P age dimensions              11.00 x  8.50"
  M argins from page edges       0.00",  0.00"
  F ont size (relative)          0.0150
  W indow/screen size fraction   0.8000
  B lowup input method:        Cursor    
  O rientation of plot:        Landscape 
  C olor PostScript output?     F

      Option, Value   (or <Return>)    c>  
 XFOIL   c>  
 Labeled airfoil file.  Name:  000004                                          

 Number of input coordinate points: 200
 Clockwise ordering
 Max thickness =     0.182844  at x =   0.219
 Max camber    =    -0.016242  at x =   0.062

  LE  x,y  =  -0.00001  -0.00109  |   Chord =   0.99989
  TE  x,y  =   0.99988   0.00003  |

 Current airfoil nodes set from buffer airfoil nodes ( 200 )

 XFOIL   c>  
 You are working with the buffer airfoil

.GDES   c>  
  i       x        y      angle
   2   0.9990   0.0002    0.002
   3   0.9978   0.0005    0.096
   4   0.9961   0.0009    0.111
   5   0.9938   0.0014    0.123
   6   0.9911   0.0019    0.151
   7   0.9880   0.0026    0.167
   8   0.9843   0.0034    0.192
   9   0.9801   0.0042    0.224
  10   0.9755   0.0052    0.204
  11   0.9704   0.0062    0.249
  12   0.9649   0.0073    0.239
  13   0.9589   0.0084    0.246
  14   0.9524   0.0096    0.264
  15   0.9455   0.0108    0.258
  16   0.9382   0.0121    0.250
  17   0.9304   0.0135    0.256
  18   0.9222   0.0148    0.243
  19   0.9135   0.0162    0.236
  20   0.9045   0.0177    0.231
  21   0.8951   0.0191    0.206
  22   0.8853   0.0206    0.204
  23   0.8751   0.0221    0.177
  24   0.8645   0.0236    0.162
  25   0.8536   0.0251    0.139
  26   0.8423   0.0267    0.130
  27   0.8307   0.0283    0.100
  28   0.8187   0.0299    0.083
  29   0.8065   0.0315    0.068
  30   0.7939   0.0332    0.044
  31   0.7810   0.0348    0.027
  32   0.7679   0.0365    0.009
  33   0.7545   0.0383   -0.001
  34   0.7409   0.0401   -0.013
  35   0.7270   0.0419   -0.028
  36   0.7129   0.0437   -0.033
  37   0.6986   0.0456   -0.040
  38   0.6841   0.0475   -0.039
  39   0.6694   0.0494   -0.033
  40   0.6545   0.0514   -0.037
  41   0.6395   0.0534   -0.024
  42   0.6243   0.0555   -0.013
  43   0.6091   0.0575    0.006
  44   0.5937   0.0596    0.020
  45   0.5782   0.0617    0.044
  46   0.5627   0.0637    0.066
  47   0.5471   0.0658    0.101
  48   0.5314   0.0678    0.126
  49   0.5157   0.0699    0.165
  50   0.5000   0.0718    0.198
  51   0.4843   0.0737    0.242
  52   0.4686   0.0756    0.283
  53   0.4529   0.0773    0.322
  54   0.4373   0.0790    0.366
  55   0.4218   0.0806    0.420
  56   0.4063   0.0820    0.456
  57   0.3909   0.0833    0.510
  58   0.3757   0.0845    0.552
  59   0.3605   0.0855    0.600
  60   0.3455   0.0863    0.648
  61   0.3306   0.0870    0.691
  62   0.3159   0.0874    0.734
  63   0.3014   0.0877    0.777
  64   0.2871   0.0878    0.820
  65   0.2730   0.0877    0.850
  66   0.2591   0.0874    0.896
  67   0.2455   0.0868    0.917
  68   0.2321   0.0861    0.954
  69   0.2190   0.0851    0.983
  70   0.2061   0.0840    1.007
  71   0.1935   0.0827    1.030
  72   0.1813   0.0811    1.052
  73   0.1693   0.0794    1.069
  74   0.1577   0.0775    1.096
  75   0.1464   0.0755    1.104
  76   0.1355   0.0733    1.129
  77   0.1249   0.0709    1.154
  78   0.1147   0.0684    1.176
  79   0.1049   0.0658    1.202
  80   0.0955   0.0631    1.244
  81   0.0865   0.0603    1.277
  82   0.0778   0.0573    1.334
  83   0.0696   0.0544    1.407
  84   0.0618   0.0513    1.479
  85   0.0545   0.0482    1.586
  86   0.0476   0.0451    1.714
  87   0.0411   0.0419    1.873
  88   0.0351   0.0387    2.075
  89   0.0296   0.0355    2.303
  90   0.0245   0.0323    2.622
  91   0.0199   0.0290    2.990
  92   0.0157   0.0258    3.448
  93   0.0120   0.0226    3.985
  94   0.0089   0.0193    4.679
  95   0.0062   0.0161    5.443
  96   0.0039   0.0129    6.291
  97   0.0022   0.0096    7.207
  98   0.0010   0.0064    7.981
  99   0.0002   0.0032    8.567
 100   0.0000   0.0000    6.544
 101   0.0002  -0.0066    4.298
 102   0.0010  -0.0131    4.309
 103   0.0022  -0.0196    4.344
 104   0.0039  -0.0260    4.357
 105   0.0062  -0.0323    4.386
 106   0.0089  -0.0384    4.416
 107   0.0120  -0.0443    4.410
 108   0.0157  -0.0500    4.408
 109   0.0199  -0.0555    4.383
 110   0.0245  -0.0607    4.309
 111   0.0296  -0.0657    4.222
 112   0.0351  -0.0703    4.109
 113   0.0411  -0.0747    3.959
 114   0.0476  -0.0787    3.788
 115   0.0545  -0.0824    3.596
 116   0.0618  -0.0858    3.376
 117   0.0696  -0.0888    3.169
 118   0.0778  -0.0915    2.933
 119   0.0865  -0.0938    2.711
 120   0.0955  -0.0958    2.493
 121   0.1049  -0.0974    2.263
 122   0.1147  -0.0987    2.066
 123   0.1249  -0.0997    1.863
 124   0.1355  -0.1004    1.679
 125   0.1464  -0.1008    1.493
 126   0.1577  -0.1009    1.331
 127   0.1693  -0.1007    1.176
 128   0.1813  -0.1003    1.040
 129   0.1935  -0.0996    0.899
 130   0.2061  -0.0988    0.785
 131   0.2190  -0.0977    0.671
 132   0.2321  -0.0965    0.568
 133   0.2455  -0.0951    0.480
 134   0.2591  -0.0935    0.387
 135   0.2730  -0.0919    0.321
 136   0.2871  -0.0901    0.242
 137   0.3014  -0.0882    0.192
 138   0.3159  -0.0863    0.130
 139   0.3306  -0.0843    0.084
 140   0.3455  -0.0823    0.046
 141   0.3605  -0.0802    0.007
 142   0.3757  -0.0781   -0.021
 143   0.3909  -0.0760   -0.051
 144   0.4063  -0.0739   -0.061
 145   0.4218  -0.0718   -0.084
 146   0.4373  -0.0697   -0.095
 147   0.4529  -0.0677   -0.101
 148   0.4686  -0.0656   -0.108
 149   0.4843  -0.0636   -0.104
 150   0.5000  -0.0616   -0.108
 151   0.5157  -0.0597   -0.101
 152   0.5314  -0.0577   -0.094
 153   0.5471  -0.0558   -0.092
 154   0.5627  -0.0539   -0.078
 155   0.5782  -0.0521   -0.069
 156   0.5937  -0.0503   -0.059
 157   0.6091  -0.0485   -0.046
 158   0.6243  -0.0467   -0.033
 159   0.6395  -0.0450   -0.027
 160   0.6545  -0.0433   -0.010
 161   0.6694  -0.0416    0.001
 162   0.6841  -0.0399    0.014
 163   0.6986  -0.0383    0.017
 164   0.7129  -0.0366    0.029
 165   0.7270  -0.0350    0.044
 166   0.7409  -0.0334    0.048
 167   0.7545  -0.0318    0.048
 168   0.7679  -0.0302    0.064
 169   0.7810  -0.0286    0.062
 170   0.7939  -0.0271    0.071
 171   0.8065  -0.0256    0.068
 172   0.8187  -0.0241    0.073
 173   0.8307  -0.0226    0.074
 174   0.8423  -0.0212    0.072
 175   0.8536  -0.0197    0.072
 176   0.8645  -0.0183    0.068
 177   0.8751  -0.0170    0.065
 178   0.8853  -0.0156    0.071
 179   0.8951  -0.0144    0.061
 180   0.9045  -0.0131    0.054
 181   0.9135  -0.0119    0.054
 182   0.9222  -0.0108    0.055
 183   0.9304  -0.0096    0.046
 184   0.9382  -0.0086    0.036
 185   0.9455  -0.0076    0.040
 186   0.9524  -0.0066    0.031
 187   0.9589  -0.0057    0.031
 188   0.9649  -0.0049    0.026
 189   0.9704  -0.0041    0.027
 190   0.9755  -0.0034    0.017
 191   0.9801  -0.0028    0.003
 192   0.9843  -0.0022    0.029
 193   0.9880  -0.0017    0.005
 194   0.9911  -0.0012    0.025
 195   0.9938  -0.0009   -0.012
 196   0.9961  -0.0006    0.023
 197   0.9978  -0.0003   -0.030
 198   0.9990  -0.0001    0.007
 199   0.9998  -0.0000    0.065

 Maximum panel corner angle =  8.567   at  i,x,y  =  99   0.0002   0.0032

 Enter corner angle criterion for refinement (deg):   4.284
 Enter type of spline parameter (1=uniform, 2=arclength):   1
 Enter refinement x limits:  -0.10000   1.10000
 Number of points added:           34
 Max thickness =     0.182860  at x =   0.219
 Max camber    =    -0.017254  at x =   0.062

 Maximum panel corner angle =  4.109   at  i,x,y  = 146   0.0351  -0.0703

.GDES   c>  
 Buffer airfoil is not identical to current airfoil

 XFOIL   c>  
 Blunt trailing edge.  Gap =  0.00025

 Paneling parameters used...
   Number of panel nodes       160
   Panel bunching parameter    1.000
   TE/LE panel density ratio   0.150
   Refined-area/LE panel density ratio    0.200
   Top    side refined area x/c limits  1.000 1.000
   Bottom side refined area x/c limits  1.000 1.000

 XFOIL   c>  
.OPERi   c>   Current iteration limit:          20

Enter new iteration limit   i>  
Enter new iteration limit   i>  
Enter new iteration limit   i>  
.OPERi   c>  
 M  =    0.0000
 Re =  0.3000E+06

.OPERv   c>  
 Sonic Cp =    -66.86      Sonic Q/Qinf =     9.138


.OPERv   c>  
 Polar  1 newly created for accumulation
 Airfoil archived with polar: 000004                                          

Enter  polar save filename  OR  <return> for no file   s>  
 New polar save file available

Enter  polar dump filename  OR  <return> for no file   s>  
 Polar dump file will NOT be written

 Polar accumulation enabled

.OPERva   c>   Calculating unit vorticity distributions ...
 Calculating wake trajectory ...
 Calculating source influence matrix ...

 Solving BL system ...

 Initializing BL ...
    side            1  ...
 MRCHUE: Inverse mode at  53     Hk =   4.059
 MRCHUE: Inverse mode at  54     Hk =   4.868
 MRCHUE: Inverse mode at  55     Hk =   5.670
 MRCHUE: Inverse mode at  56     Hk =   6.469
 MRCHUE: Inverse mode at  57     Hk =   7.271
 MRCHUE: Inverse mode at  58     Hk =   8.079
 MRCHUE: Inverse mode at  59     Hk =   8.894
 MRCHUE: Inverse mode at  60     Hk =   7.949
 MRCHUE: Inverse mode at  61     Hk =   4.666
 MRCHUE: Inverse mode at  62     Hk =   2.831
 MRCHUE: Convergence failed at  85  side 1    Res =  0.4531E+01
    side            2  ...
 MRCHUE: Inverse mode at  39     Hk =   4.211
 MRCHUE: Inverse mode at  40     Hk =   5.025
 MRCHUE: Inverse mode at  41     Hk =   5.858
 MRCHUE: Inverse mode at  42     Hk =   6.716
 MRCHUE: Inverse mode at  43     Hk =   7.607
 MRCHUE: Inverse mode at  44     Hk =   8.534
 MRCHUE: Inverse mode at  45     Hk =   9.498
 MRCHUE: Inverse mode at  46     Hk =   5.002
 MRCHUE: Inverse mode at  47     Hk =   2.655
 MRCHUE: Convergence failed at  77  side 2    Res =  0.4102E+01

 MRCHDU: Convergence failed at  85  side 1    Res =  0.4992E+01
 MRCHDU: Convergence failed at  77  side 2    Res =  0.1186E+01
 Side 1  free  transition at x/c =  0.4509   60
 Side 2  free  transition at x/c =  0.2769   46

   1   rms: 0.6818E+00   max: 0.3210E+01   D at   79  2   RLX: 0.467
       a =  2.000      CL =  0.2840
      Cm = -0.0402     CD =  0.00593   =>   CDf =  0.00867    CDp = -0.00274

 Side 1  free  transition at x/c =  0.4645   61
 Side 2  free  transition at x/c =  0.2828   46

   2   rms: 0.2190E+00   max: 0.9513E+00   D at   81  2
       a =  2.000      CL =  0.2677
      Cm = -0.0358     CD =  0.01196   =>   CDf =  0.00858    CDp =  0.00338

 Side 1  free  transition at x/c =  0.4766   60
 Side 2  free  transition at x/c =  0.2935   47

   3   rms: 0.2636E-01   max: -.1830E+00   D at   60  1
       a =  2.000      CL =  0.2643
      Cm = -0.0351     CD =  0.01392   =>   CDf =  0.00841    CDp =  0.00551

 Side 1  free  transition at x/c =  0.4792   60
 Side 2  free  transition at x/c =  0.2928   47

   4   rms: 0.4033E-02   max: -.5302E-01   C at   60  1
       a =  2.000      CL =  0.2641
      Cm = -0.0350     CD =  0.01393   =>   CDf =  0.00834    CDp =  0.00559

 Side 1  free  transition at x/c =  0.4791   60
 Side 2  free  transition at x/c =  0.2927   47

   5   rms: 0.1020E-03   max: 0.1007E-02   D at   60  1
       a =  2.000      CL =  0.2641
      Cm = -0.0350     CD =  0.01393   =>   CDf =  0.00832    CDp =  0.00561

 Side 1  free  transition at x/c =  0.4791   60
 Side 2  free  transition at x/c =  0.2927   47

   6   rms: 0.1463E-05   max: -.1152E-04   D at    4  2
       a =  2.000      CL =  0.2641
      Cm = -0.0350     CD =  0.01393   =>   CDf =  0.00832    CDp =  0.00561

 Point added to stored polar  1
 Point written to save file  000004M0.1.log                                  
 Dump file unspecified or not available
 Calculating wake trajectory ...
 Calculating source influence matrix ...

 Solving BL system ...

 Side 1  free  transition at x/c =  0.4791   60
 Side 2  free  transition at x/c =  0.2927   47

   1   rms: 0.1450E+00   max: -.6583E+00   C at   60  1   RLX: 0.759
       a =  3.000      CL =  0.3475
      Cm = -0.0332     CD =  0.01378   =>   CDf =  0.00817    CDp =  0.00561

 Side 1  free  transition at x/c =  0.4579   62
 Side 2  free  transition at x/c =  0.3165   47

   2   rms: 0.4238E-01   max: -.3516E+00   D at   62  1
       a =  3.000      CL =  0.3730
      Cm = -0.0328     CD =  0.01382   =>   CDf =  0.00828    CDp =  0.00553

 Side 1  free  transition at x/c =  0.4553   61
 Side 2  free  transition at x/c =  0.3253   47

   3   rms: 0.8418E-02   max: 0.8296E-01   C at   47  2
       a =  3.000      CL =  0.3730
      Cm = -0.0327     CD =  0.01379   =>   CDf =  0.00809    CDp =  0.00570

 Side 1  free  transition at x/c =  0.4539   61
 Side 2  free  transition at x/c =  0.3226   47

   4   rms: 0.4174E-03   max: -.7653E-02   D at   48  2
       a =  3.000      CL =  0.3730
      Cm = -0.0327     CD =  0.01380   =>   CDf =  0.00810    CDp =  0.00570

 Side 1  free  transition at x/c =  0.4539   61
 Side 2  free  transition at x/c =  0.3225   47

   5   rms: 0.1910E-05   max: -.3473E-04   D at   48  2
       a =  3.000      CL =  0.3730
      Cm = -0.0327     CD =  0.01381   =>   CDf =  0.00810    CDp =  0.00570

 Point added to stored polar  1
 Point written to save file  000004M0.1.log                                  
 Dump file unspecified or not available
 Calculating wake trajectory ...
 Calculating source influence matrix ...

 Solving BL system ...

 Side 1  free  transition at x/c =  0.4539   61
 Side 2  free  transition at x/c =  0.3225   47

   1   rms: 0.1484E+00   max: -.6726E+00   T at   47  2   RLX: 0.743
       a =  4.000      CL =  0.4526
      Cm = -0.0307     CD =  0.01354   =>   CDf =  0.00802    CDp =  0.00552

 Side 1  free  transition at x/c =  0.4335   61
 Side 2  free  transition at x/c =  0.3435   47

   2   rms: 0.8729E-01   max: -.5740E+00   T at   47  2   RLX: 0.871
       a =  4.000      CL =  0.4776
      Cm = -0.0304     CD =  0.01339   =>   CDf =  0.00819    CDp =  0.00520

 Side 1  free  transition at x/c =  0.4294   61
 Side 2  free  transition at x/c =  0.3622   48

   3   rms: 0.1466E-01   max: -.1435E+00   D at   47  2
       a =  4.000      CL =  0.4818
      Cm = -0.0303     CD =  0.01384   =>   CDf =  0.00785    CDp =  0.00599

 Side 1  free  transition at x/c =  0.4283   62
 Side 2  free  transition at x/c =  0.3622   47

   4   rms: 0.1185E-02   max: -.1323E-01   D at   47  2
       a =  4.000      CL =  0.4817
      Cm = -0.0302     CD =  0.01385   =>   CDf =  0.00789    CDp =  0.00596

 Side 1  free  transition at x/c =  0.4283   62
 Side 2  free  transition at x/c =  0.3616   46

   5   rms: 0.1737E-03   max: -.2170E-02   D at    4  1
       a =  4.000      CL =  0.4817
      Cm = -0.0302     CD =  0.01385   =>   CDf =  0.00790    CDp =  0.00595

 Side 1  free  transition at x/c =  0.4283   62
 Side 2  free  transition at x/c =  0.3616   46

   6   rms: 0.1489E-05   max: -.3438E-04   D at    2  1
       a =  4.000      CL =  0.4817
      Cm = -0.0302     CD =  0.01385   =>   CDf =  0.00790    CDp =  0.00595

 Point added to stored polar  1
 Point written to save file  000004M0.1.log                                  
 Dump file unspecified or not available
 Calculating wake trajectory ...
 Calculating source influence matrix ...

 Solving BL system ...

 Side 1  free  transition at x/c =  0.4283   62
 Side 2  free  transition at x/c =  0.3616   46

   1   rms: 0.1480E+00   max: 0.7692E+00   C at   46  2   RLX: 0.724
       a =  5.000      CL =  0.5618
      Cm = -0.0286     CD =  0.01405   =>   CDf =  0.00781    CDp =  0.00625

 Side 1  free  transition at x/c =  0.4086   62
 Side 2  free  transition at x/c =  0.4053   47

   2   rms: 0.4612E-01   max: -.2510E+00   D at   62  1
       a =  5.000      CL =  0.5885
      Cm = -0.0274     CD =  0.01385   =>   CDf =  0.00780    CDp =  0.00605

 Side 1  free  transition at x/c =  0.4011   62
 Side 2  free  transition at x/c =  0.4248   48

   3   rms: 0.7875E-02   max: 0.1110E+00   D at   48  2
       a =  5.000      CL =  0.5877
      Cm = -0.0273     CD =  0.01378   =>   CDf =  0.00754    CDp =  0.00625

 Side 1  free  transition at x/c =  0.4018   62
 Side 2  free  transition at x/c =  0.4236   48

   4   rms: 0.7040E-03   max: 0.1246E-01   C at   48  2
       a =  5.000      CL =  0.5877
      Cm = -0.0273     CD =  0.01378   =>   CDf =  0.00753    CDp =  0.00626

 Side 1  free  transition at x/c =  0.4018   62
 Side 2  free  transition at x/c =  0.4232   48

   5   rms: 0.3576E-05   max: -.4903E-04   D at   49  2
       a =  5.000      CL =  0.5877
      Cm = -0.0273     CD =  0.01378   =>   CDf =  0.00753    CDp =  0.00625

 Point added to stored polar  1
 Point written to save file  000004M0.1.log                                  
 Dump file unspecified or not available
 Calculating wake trajectory ...
 Calculating source influence matrix ...

 Solving BL system ...

 Side 1  free  transition at x/c =  0.4018   62
 Side 2  free  transition at x/c =  0.4232   48

   1   rms: 0.1612E+00   max: -.1118E+01   C at   48  2   RLX: 0.447
       a =  6.000      CL =  0.6346
      Cm = -0.0259     CD =  0.01375   =>   CDf =  0.00742    CDp =  0.00633

 Side 1  free  transition at x/c =  0.3885   62
 Side 2  free  transition at x/c =  0.4574   48

   2   rms: 0.8968E-01   max: -.5384E+00   T at   48  2   RLX: 0.929
       a =  6.000      CL =  0.6889
      Cm = -0.0242     CD =  0.01385   =>   CDf =  0.00752    CDp =  0.00633

 MRCHDU: Convergence failed at  50  side 2    Res =  0.8101E+00
 Side 1  free  transition at x/c =  0.3664   61
 Side 2  free  transition at x/c =  0.6272   55

   3   rms: 0.3235E+00   max: -.6370E+01   C at   55  2   RLX: 0.078
       a =  6.000      CL =  0.6728
      Cm = -0.0198     CD =  0.01367   =>   CDf =  0.00684    CDp =  0.00683

 Side 1  free  transition at x/c =  0.3668   61
 Side 2  free  transition at x/c =  0.6303   56

   4   rms: 0.1301E+00   max: -.2331E+01   C at   56  2   RLX: 0.214
       a =  6.000      CL =  0.6748
      Cm = -0.0207     CD =  0.01352   =>   CDf =  0.00694    CDp =  0.00658

 Side 1  free  transition at x/c =  0.3676   61
 Side 2  free  transition at x/c =  0.6590   57

   5   rms: 0.2148E+00   max: -.4397E+01   C at   57  2   RLX: 0.114
       a =  6.000      CL =  0.6746
      Cm = -0.0208     CD =  0.01337   =>   CDf =  0.00671    CDp =  0.00666

 Side 1  free  transition at x/c =  0.3680   61
 Side 2  free  transition at x/c =  0.6770   57

   6   rms: 0.3638E+00   max: -.6854E+01   C at   57  2   RLX: 0.073
       a =  6.000      CL =  0.6738
      Cm = -0.0206     CD =  0.01326   =>   CDf =  0.00655    CDp =  0.00671

 Side 1  free  transition at x/c =  0.3683   61
 Side 2  free  transition at x/c =  0.6900   58

   7   rms: 0.3661E+00   max: -.7292E+01   C at   58  2   RLX: 0.069
       a =  6.000      CL =  0.6735
      Cm = -0.0207     CD =  0.01319   =>   CDf =  0.00651    CDp =  0.00668

 Side 1  free  transition at x/c =  0.3686   61
 Side 2  free  transition at x/c =  0.7029   58

   8   rms: 0.3699E+00   max: -.6901E+01   C at   58  2   RLX: 0.072
       a =  6.000      CL =  0.6730
      Cm = -0.0206     CD =  0.01313   =>   CDf =  0.00643    CDp =  0.00669

 Side 1  free  transition at x/c =  0.3688   61
 Side 2  free  transition at x/c =  0.7216   59

   9   rms: 0.2874E+00   max: -.5492E+01   C at   59  2   RLX: 0.091
       a =  6.000      CL =  0.6726
      Cm = -0.0205     CD =  0.01304   =>   CDf =  0.00637    CDp =  0.00667

 Side 1  free  transition at x/c =  0.3690   61
 Side 2  free  transition at x/c =  0.7892   62

  10   rms: 0.2612E+00   max: -.4986E+01   C at   62  2   RLX: 0.100
       a =  6.000      CL =  0.6718
      Cm = -0.0199     CD =  0.01285   =>   CDf =  0.00613    CDp =  0.00672

 Side 1  free  transition at x/c =  0.3692   61
 Side 2  free  transition at x/c =  0.7855   62

  11   rms: 0.1175E+00   max: -.2255E+01   C at   62  2   RLX: 0.222
       a =  6.000      CL =  0.6729
      Cm = -0.0202     CD =  0.01280   =>   CDf =  0.00614    CDp =  0.00666

 Side 1  free  transition at x/c =  0.3695   61
 Side 2  free  transition at x/c =  0.7967   62

  12   rms: 0.3755E-01   max: -.6368E+00   C at   62  2   RLX: 0.785
       a =  6.000      CL =  0.6755
      Cm = -0.0206     CD =  0.01265   =>   CDf =  0.00609    CDp =  0.00656

 Side 1  free  transition at x/c =  0.3700   61
 Side 2  free  transition at x/c =  0.7550   61

  13   rms: 0.5373E-01   max: 0.1081E+01   C at   61  2
       a =  6.000      CL =  0.6797
      Cm = -0.0219     CD =  0.01299   =>   CDf =  0.00620    CDp =  0.00678

 Side 1  free  transition at x/c =  0.3697   61
 Side 2  free  transition at x/c =  0.6718   57

  14   rms: 0.5182E-02   max: 0.7363E-01   D at   60  2
       a =  6.000      CL =  0.6812
      Cm = -0.0221     CD =  0.01304   =>   CDf =  0.00649    CDp =  0.00655

 Side 1  free  transition at x/c =  0.3695   61
 Side 2  free  transition at x/c =  0.6727   57

  15   rms: 0.2952E-03   max: 0.5383E-02   C at   57  2
       a =  6.000      CL =  0.6812
      Cm = -0.0221     CD =  0.01304   =>   CDf =  0.00648    CDp =  0.00656

 Side 1  free  transition at x/c =  0.3695   61
 Side 2  free  transition at x/c =  0.6725   57

  16   rms: 0.2450E-05   max: -.3045E-04   C at   57  2
       a =  6.000      CL =  0.6812
      Cm = -0.0221     CD =  0.01304   =>   CDf =  0.00648    CDp =  0.00655

 Point added to stored polar  1
 Point written to save file  000004M0.1.log                                  
 Dump file unspecified or not available
 Calculating wake trajectory ...
 Calculating source influence matrix ...

 Solving BL system ...

 Side 1  free  transition at x/c =  0.3695   61
 Side 2  free  transition at x/c =  0.6725   57

   1   rms: 0.1252E+01   max: -.2467E+02   C at   57  2   RLX: 0.020
       a =  7.000      CL =  0.6819
      Cm = -0.0218     CD =  0.01296   =>   CDf =  0.00649    CDp =  0.00647

 Side 1  free  transition at x/c =  0.3689   61
 Side 2  free  transition at x/c =  0.7002   58

   2   rms: 0.1637E+01   max: -.3149E+02   C at   58  2   RLX: 0.016
       a =  7.000      CL =  0.6823
      Cm = -0.0214     CD =  0.01287   =>   CDf =  0.00638    CDp =  0.00649

 Side 1  free  transition at x/c =  0.3684   61
 Side 2  free  transition at x/c =  0.7194   59

   3   rms: 0.1627E+01   max: -.3168E+02   C at   59  2   RLX: 0.016
       a =  7.000      CL =  0.6829
      Cm = -0.0212     CD =  0.01281   =>   CDf =  0.00630    CDp =  0.00651

 Side 1  free  transition at x/c =  0.3679   61
 Side 2  free  transition at x/c =  0.7506   60

   4   rms: 0.1786E+01   max: -.3363E+02   C at   60  2   RLX: 0.015
       a =  7.000      CL =  0.6834
      Cm = -0.0208     CD =  0.01273   =>   CDf =  0.00619    CDp =  0.00654

 Side 1  free  transition at x/c =  0.3675   61
 Side 2  free  transition at x/c =  0.7745   61

   5   rms: 0.1553E+01   max: -.2905E+02   C at   61  2   RLX: 0.017
       a =  7.000      CL =  0.6846
      Cm = -0.0206     CD =  0.01267   =>   CDf =  0.00598    CDp =  0.00669

 Side 1  free  transition at x/c =  0.3669   62
 Side 2  free  transition at x/c =  0.7985   61

   6   rms: 0.1170E+01   max: -.2155E+02   C at   61  2   RLX: 0.023
       a =  7.000      CL =  0.6871
      Cm = -0.0205     CD =  0.01263   =>   CDf =  0.00602    CDp =  0.00661

 Side 1  free  transition at x/c =  0.3661   62
 Side 2  free  transition at x/c =  0.8418   63

   7   rms: 0.1726E+01   max: -.3125E+02   C at   63  2   RLX: 0.016
       a =  7.000      CL =  0.6914
      Cm = -0.0206     CD =  0.01258   =>   CDf =  0.00590    CDp =  0.00668

 Side 1  free  transition at x/c =  0.3651   62
 Side 2  free  transition at x/c =  0.8738   65

   8   rms: 0.2929E+01   max: -.4759E+02   C at   65  2   RLX: 0.011
       a =  7.000      CL =  0.7040
      Cm = -0.0228     CD =  0.01259   =>   CDf =  0.00584    CDp =  0.00675

 Side 1  free  transition at x/c =  0.3635   62
 Side 2  free  transition at x/c =  0.8949   65

   9   rms: 0.3645E+00   max: -.4977E+01   C at   65  2   RLX: 0.100
       a =  7.000      CL =  0.7246
      Cm = -0.0249     CD =  0.01271   =>   CDf =  0.00581    CDp =  0.00690

 Side 1  free  transition at x/c =  0.3591   62
 Side 2  free  transition at x/c =  0.9660   69

  10   rms: 0.2344E+00   max: 0.1248E+01   D at   71  2   RLX: 0.607
       a =  7.000      CL =  0.8395
      Cm = -0.0354     CD =  0.01302   =>   CDf =  0.00576    CDp =  0.00727

 Side 1  free  transition at x/c =  0.3359   61
 Side 2 forced transition at x/c =  1.0001   70

  11   rms: 0.7021E-01   max: -.5257E+00   D at   62  1   RLX: 0.951
       a =  7.000      CL =  0.8766
      Cm = -0.0361     CD =  0.01281   =>   CDf =  0.00588    CDp =  0.00694

 Side 1  free  transition at x/c =  0.3229   61
 Side 2 forced transition at x/c =  1.0001   70

  12   rms: 0.6770E-02   max: -.8552E-01   D at   62  1
       a =  7.000      CL =  0.8789
      Cm = -0.0364     CD =  0.01333   =>   CDf =  0.00590    CDp =  0.00743

 Side 1  free  transition at x/c =  0.3212   61
 Side 2 forced transition at x/c =  1.0001   70

  13   rms: 0.2169E-03   max: -.3777E-02   D at   62  1
       a =  7.000      CL =  0.8789
      Cm = -0.0364     CD =  0.01334   =>   CDf =  0.00592    CDp =  0.00742

 Side 1  free  transition at x/c =  0.3212   61
 Side 2 forced transition at x/c =  1.0001   70

  14   rms: 0.3077E-05   max: 0.3252E-04   D at    4  2
       a =  7.000      CL =  0.8789
      Cm = -0.0364     CD =  0.01334   =>   CDf =  0.00593    CDp =  0.00742

 Point added to stored polar  1
 Point written to save file  000004M0.1.log                                  
 Dump file unspecified or not available
 Calculating wake trajectory ...
 Calculating source influence matrix ...

 Solving BL system ...

 Side 1  free  transition at x/c =  0.3212   61
 Side 2 forced transition at x/c =  1.0001   70

   1   rms: 0.1454E+00   max: -.7402E+00   D at   61  1   RLX: 0.675
       a =  8.000      CL =  0.9310
      Cm = -0.0311     CD =  0.01405   =>   CDf =  0.00587    CDp =  0.00818

 Side 1  free  transition at x/c =  0.2941   60
 Side 2 forced transition at x/c =  1.0001   69

   2   rms: 0.5124E-01   max: -.2846E+00   D at   60  1
       a =  8.000      CL =  0.9602
      Cm = -0.0292     CD =  0.01416   =>   CDf =  0.00593    CDp =  0.00823

 Side 1  free  transition at x/c =  0.2748   60
 Side 2 forced transition at x/c =  1.0001   68

   3   rms: 0.1159E-01   max: -.1312E+00   D at   60  1
       a =  8.000      CL =  0.9586
      Cm = -0.0289     CD =  0.01413   =>   CDf =  0.00607    CDp =  0.00806

 Side 1  free  transition at x/c =  0.2780   60
 Side 2 forced transition at x/c =  1.0001   68

   4   rms: 0.9911E-03   max: -.1551E-01   D at   62  1
       a =  8.000      CL =  0.9588
      Cm = -0.0289     CD =  0.01414   =>   CDf =  0.00602    CDp =  0.00813

 Side 1  free  transition at x/c =  0.2775   60
 Side 2 forced transition at x/c =  1.0001   68

   5   rms: 0.9692E-05   max: -.1135E-03   D at   62  1
       a =  8.000      CL =  0.9588
      Cm = -0.0289     CD =  0.01414   =>   CDf =  0.00602    CDp =  0.00812

 Point added to stored polar  1
 Point written to save file  000004M0.1.log                                  
 Dump file unspecified or not available
 Calculating wake trajectory ...
 Calculating source influence matrix ...

 Solving BL system ...

 Side 1  free  transition at x/c =  0.2775   60
 Side 2 forced transition at x/c =  1.0001   68

   1   rms: 0.1382E+00   max: -.5469E+00   D at   61  1   RLX: 0.914
       a =  9.000      CL =  1.0310
      Cm = -0.0219     CD =  0.01499   =>   CDf =  0.00595    CDp =  0.00904

 Side 1  free  transition at x/c =  0.2201   57
 Side 2 forced transition at x/c =  1.0001   67

   2   rms: 0.3527E-01   max: -.4911E+00   D at   58  1
       a =  9.000      CL =  1.0312
      Cm = -0.0205     CD =  0.01539   =>   CDf =  0.00632    CDp =  0.00907

 Side 1  free  transition at x/c =  0.2190   57
 Side 2 forced transition at x/c =  1.0001   67

   3   rms: 0.9030E-02   max: 0.1705E+00   C at   57  1
       a =  9.000      CL =  1.0288
      Cm = -0.0201     CD =  0.01553   =>   CDf =  0.00624    CDp =  0.00929

 Side 1  free  transition at x/c =  0.2156   57
 Side 2 forced transition at x/c =  1.0001   67

   4   rms: 0.1597E-03   max: -.2491E-02   D at   60  1
       a =  9.000      CL =  1.0287
      Cm = -0.0201     CD =  0.01553   =>   CDf =  0.00627    CDp =  0.00926

 Side 1  free  transition at x/c =  0.2155   57
 Side 2 forced transition at x/c =  1.0001   67

   5   rms: 0.9423E-06   max: -.6303E-05   D at   60  1
       a =  9.000      CL =  1.0287
      Cm = -0.0201     CD =  0.01553   =>   CDf =  0.00627    CDp =  0.00926

 Point added to stored polar  1
 Point written to save file  000004M0.1.log                                  
 Dump file unspecified or not available
 Calculating wake trajectory ...
 Calculating source influence matrix ...

 Solving BL system ...

 Side 1  free  transition at x/c =  0.2155   57
 Side 2 forced transition at x/c =  1.0001   67

   1   rms: 0.1538E+00   max: 0.1403E+01   C at   57  1   RLX: 0.667
       a = 10.000      CL =  1.0739
      Cm = -0.0142     CD =  0.01668   =>   CDf =  0.00617    CDp =  0.01051

 Side 1  free  transition at x/c =  0.1605   54
 Side 2 forced transition at x/c =  1.0001   66

   2   rms: 0.5189E-01   max: -.4136E+00   D at   54  1
       a = 10.000      CL =  1.0870
      Cm = -0.0105     CD =  0.01792   =>   CDf =  0.00661    CDp =  0.01131

 Side 1  free  transition at x/c =  0.1306   51
 Side 2 forced transition at x/c =  1.0001   66

   3   rms: 0.1860E-01   max: 0.1794E+00   D at   53  1
       a = 10.000      CL =  1.0773
      Cm = -0.0094     CD =  0.01839   =>   CDf =  0.00679    CDp =  0.01161

 Side 1  free  transition at x/c =  0.1313   51
 Side 2 forced transition at x/c =  1.0001   66

   4   rms: 0.6244E-02   max: -.1177E+00   C at   51  1
       a = 10.000      CL =  1.0777
      Cm = -0.0094     CD =  0.01838   =>   CDf =  0.00680    CDp =  0.01158

 Side 1  free  transition at x/c =  0.1312   51
 Side 2 forced transition at x/c =  1.0001   66

   5   rms: 0.2799E-03   max: 0.5361E-02   C at   51  1
       a = 10.000      CL =  1.0776
      Cm = -0.0094     CD =  0.01839   =>   CDf =  0.00678    CDp =  0.01161

 Side 1  free  transition at x/c =  0.1311   51
 Side 2 forced transition at x/c =  1.0001   66

   6   rms: 0.2466E-05   max: -.1453E-04   C at   51  1
       a = 10.000      CL =  1.0776
      Cm = -0.0094     CD =  0.01839   =>   CDf =  0.00678    CDp =  0.01161

 Point added to stored polar  1
 Point written to save file  000004M0.1.log                                  
 Dump file unspecified or not available
 Calculating wake trajectory ...
 Calculating source influence matrix ...

 Solving BL system ...

 Side 1  free  transition at x/c =  0.1311   51
 Side 2 forced transition at x/c =  1.0001   66

   1   rms: 0.1702E+00   max: 0.1909E+01   C at   51  1   RLX: 0.665
       a = 11.000      CL =  1.1152
      Cm = -0.0032     CD =  0.02031   =>   CDf =  0.00663    CDp =  0.01368

 Side 1  free  transition at x/c =  0.0956   49
 Side 2 forced transition at x/c =  1.0001   65

   2   rms: 0.5824E-01   max: -.5881E+00   D at   49  1   RLX: 0.850
       a = 11.000      CL =  1.1111
      Cm =  0.0007     CD =  0.02200   =>   CDf =  0.00706    CDp =  0.01494

 Side 1  free  transition at x/c =  0.0890   48
 Side 2 forced transition at x/c =  1.0001   65

   3   rms: 0.1911E-01   max: -.2956E+00   D at   49  1
       a = 11.000      CL =  1.1086
      Cm =  0.0021     CD =  0.02220   =>   CDf =  0.00701    CDp =  0.01518

 Side 1  free  transition at x/c =  0.0878   48
 Side 2 forced transition at x/c =  1.0001   65

   4   rms: 0.3567E-02   max: -.4031E-01   D at   49  1
       a = 11.000      CL =  1.1060
      Cm =  0.0023     CD =  0.02236   =>   CDf =  0.00705    CDp =  0.01531

 Side 1  free  transition at x/c =  0.0877   48
 Side 2 forced transition at x/c =  1.0001   65

   5   rms: 0.9333E-04   max: -.1422E-02   D at   49  1
       a = 11.000      CL =  1.1060
      Cm =  0.0023     CD =  0.02236   =>   CDf =  0.00705    CDp =  0.01531

 Point added to stored polar  1
 Point written to save file  000004M0.1.log                                  
 Dump file unspecified or not available
 Calculating wake trajectory ...
 Calculating source influence matrix ...

 Solving BL system ...

 Side 1  free  transition at x/c =  0.0877   48
 Side 2 forced transition at x/c =  1.0001   65

   1   rms: 0.1747E+00   max: 0.8265E+00   C at   48  1   RLX: 0.657
       a = 12.000      CL =  1.1103
      Cm =  0.0099     CD =  0.02625   =>   CDf =  0.00707    CDp =  0.01918

 Side 1  free  transition at x/c =  0.0767   46
 Side 2 forced transition at x/c =  1.0001   65

   2   rms: 0.6788E-01   max: -.3786E+00   D at   48  1
       a = 12.000      CL =  1.1277
      Cm =  0.0102     CD =  0.02814   =>   CDf =  0.00682    CDp =  0.02132

 Side 1  free  transition at x/c =  0.0696   46
 Side 2 forced transition at x/c =  1.0001   64

   3   rms: 0.2219E-01   max: -.2776E+00   D at   46  1
       a = 12.000      CL =  1.1260
      Cm =  0.0094     CD =  0.02827   =>   CDf =  0.00705    CDp =  0.02121

 Side 1  free  transition at x/c =  0.0705   46
 Side 2 forced transition at x/c =  1.0001   64

   4   rms: 0.4248E-02   max: 0.2859E-01   T at   46  1
       a = 12.000      CL =  1.1284
      Cm =  0.0094     CD =  0.02812   =>   CDf =  0.00697    CDp =  0.02115

 Side 1  free  transition at x/c =  0.0700   46
 Side 2 forced transition at x/c =  1.0001   64

   5   rms: 0.2385E-03   max: 0.1605E-02   D at   87  1
       a = 12.000      CL =  1.1282
      Cm =  0.0094     CD =  0.02814   =>   CDf =  0.00699    CDp =  0.02115

 Side 1  free  transition at x/c =  0.0700   46
 Side 2 forced transition at x/c =  1.0001   64

   6   rms: 0.7025E-05   max: -.2326E-04   D at   89  1
       a = 12.000      CL =  1.1282
      Cm =  0.0094     CD =  0.02814   =>   CDf =  0.00699    CDp =  0.02115

 Point added to stored polar  1
 Point written to save file  000004M0.1.log                                  
 Dump file unspecified or not available
 Calculating wake trajectory ...
 Calculating source influence matrix ...

 Solving BL system ...

 Side 1  free  transition at x/c =  0.0700   46
 Side 2 forced transition at x/c =  1.0001   64

   1   rms: 0.1563E+00   max: 0.6740E+00   T at   46  1   RLX: 0.933
       a = 13.000      CL =  1.1493
      Cm =  0.0120     CD =  0.03539   =>   CDf =  0.00701    CDp =  0.02838

 MRCHDU: Convergence failed at  46  side 1    Res =  0.3167E+01
 MRCHDU: Convergence failed at  47  side 1    Res =  0.3530E+01
 MRCHDU: Convergence failed at  48  side 1    Res =  0.1705E+01
 MRCHDU: Convergence failed at  49  side 1    Res =  0.1379E+01
 MRCHDU: Convergence failed at  50  side 1    Res =  0.1433E+01
 MRCHDU: Convergence failed at  51  side 1    Res =  0.1477E+01
 MRCHDU: Convergence failed at  52  side 1    Res =  0.1532E+01
 MRCHDU: Convergence failed at  53  side 1    Res =  0.1574E+01
 MRCHDU: Convergence failed at  54  side 1    Res =  0.1670E+01
 MRCHDU: Convergence failed at  55  side 1    Res =  0.1769E+01
 MRCHDU: Convergence failed at  56  side 1    Res =  0.1838E+01
 MRCHDU: Convergence failed at  57  side 1    Res =  0.2008E+01
 MRCHDU: Convergence failed at  58  side 1    Res =  0.2226E+01
 MRCHDU: Convergence failed at  59  side 1    Res =  0.2022E+01
 MRCHDU: Convergence failed at  60  side 1    Res =  0.2212E+01
 MRCHDU: Convergence failed at  61  side 1    Res =  0.2370E+01
 MRCHDU: Convergence failed at  62  side 1    Res =  0.2592E+01
 MRCHDU: Convergence failed at  63  side 1    Res =  0.2815E+01
 MRCHDU: Convergence failed at  64  side 1    Res =  0.3026E+01
 MRCHDU: Convergence failed at  65  side 1    Res =  0.7241E+01
 MRCHDU: Convergence failed at  66  side 1    Res =  0.8660E+01
 MRCHDU: Convergence failed at  67  side 1    Res =  0.1122E+02
 MRCHDU: Convergence failed at  68  side 1    Res =  0.1519E+02
 MRCHDU: Convergence failed at  69  side 1    Res =  0.2099E+02
 MRCHDU: Convergence failed at  70  side 1    Res =  0.7143E+02
 MRCHDU: Convergence failed at  71  side 1    Res =  0.2337E+02
 MRCHDU: Convergence failed at  72  side 1    Res =  0.1441E+03
 MRCHDU: Convergence failed at  73  side 1    Res =  0.2005E+03
 MRCHDU: Convergence failed at  74  side 1    Res =  0.8437E+02
 MRCHDU: Convergence failed at  75  side 1    Res =  0.1045E+02
 MRCHDU: Convergence failed at  76  side 1    Res =  0.1985E+02
 MRCHDU: Convergence failed at  77  side 1    Res =  0.2125E+02
 MRCHDU: Convergence failed at  78  side 1    Res =  0.4099E+02
 MRCHDU: Convergence failed at  79  side 1    Res =  0.5722E+02
 MRCHDU: Convergence failed at  80  side 1    Res =  0.2051E+03
 MRCHDU: Convergence failed at  81  side 1    Res =  0.2430E+02
 MRCHDU: Convergence failed at  82  side 1    Res =  0.2124E+02
 MRCHDU: Convergence failed at  83  side 1    Res =  0.1340E+02
 MRCHDU: Convergence failed at  84  side 1    Res =  0.1967E+02
 MRCHDU: Convergence failed at  85  side 1    Res =  0.6026E+02
 MRCHDU: Convergence failed at  86  side 1    Res =  0.5318E+02
 MRCHDU: Convergence failed at  87  side 1    Res =  0.8174E+02
 MRCHDU: Convergence failed at  88  side 1    Res =  0.2483E+02
 MRCHDU: Convergence failed at  89  side 1    Res =  0.2292E+02
 MRCHDU: Convergence failed at  90  side 1    Res =  0.1411E+02
 MRCHDU: Convergence failed at  91  side 1    Res =  0.1439E+02
 MRCHDU: Convergence failed at  92  side 1    Res =  0.1565E+02
 MRCHDU: Convergence failed at  93  side 1    Res =  0.1701E+02
 MRCHDU: Convergence failed at  94  side 1    Res =  0.1784E+02
 MRCHDU: Convergence failed at  95  side 1    Res =  0.3247E+02
 MRCHDU: Convergence failed at  96  side 1    Res =  0.3746E+02
 MRCHDU: Convergence failed at  97  side 1    Res =  0.4329E+02
 MRCHDU: Convergence failed at  98  side 1    Res =  0.6004E+02
 Side 1  free  transition at x/c =  0.0613   44
 Side 2 forced transition at x/c =  1.0001   64

   2   rms: 0.1382E+01   max: 0.5647E+01   D at   98  1   RLX: 0.266
       a = 13.000      CL =  2.4653
      Cm = -0.4875     CD =  0.00995   =>   CDf =  0.00263    CDp =  0.00732

 Side 1  free  transition at x/c =  0.0565   45
 Side 2 forced transition at x/c =  1.0001   63

   3   rms: 0.4743E+00   max: 0.6361E+00   C at   63  2   RLX: 0.476
       a = 13.000      CL =  1.7750
      Cm = -0.1669     CD =  0.02972   =>   CDf =  0.00911    CDp =  0.02060

 Side 1  free  transition at x/c =  0.0555   44
 Side 2 forced transition at x/c =  1.0001   63

   4   rms: 0.3534E+00   max: -.1683E+01   D at   72  1   RLX: 0.297
       a = 13.000      CL =  1.6216
      Cm = -0.1046     CD =  0.02706   =>   CDf =  0.00768    CDp =  0.01938

 Side 1  free  transition at x/c =  0.0550   45
 Side 2 forced transition at x/c =  1.0001   62

   5   rms: 0.2364E+00   max: -.2764E+00   C at   63  2   RLX: 0.548
       a = 13.000      CL =  1.4264
      Cm = -0.0339     CD =  0.02451   =>   CDf =  0.00847    CDp =  0.01603

 Side 1  free  transition at x/c =  0.0549   44
 Side 2 forced transition at x/c =  1.0001   63

   6   rms: 0.4585E+00   max: -.1501E+01   T at    2  2   RLX: 0.333
       a = 13.000      CL =  1.2688
      Cm = -0.0195     CD =  0.03441   =>   CDf =  0.00781    CDp =  0.02659

 Side 1  free  transition at x/c =  0.0607   45
 Side 2 forced transition at x/c =  1.0001   63

   7   rms: 0.7578E-01   max: 0.5855E+00   D at   81  1
       a = 13.000      CL =  1.1425
      Cm =  0.0115     CD =  0.03673   =>   CDf =  0.00744    CDp =  0.02929

 Side 1  free  transition at x/c =  0.0609   44
 Side 2 forced transition at x/c =  1.0001   64

   8   rms: 0.1566E-01   max: 0.1452E+00   D at   81  1
       a = 13.000      CL =  1.1405
      Cm =  0.0101     CD =  0.03760   =>   CDf =  0.00689    CDp =  0.03071

 Side 1  free  transition at x/c =  0.0606   44
 Side 2 forced transition at x/c =  1.0001   64

   9   rms: 0.2823E-02   max: 0.3487E-01   D at   81  1
       a = 13.000      CL =  1.1397
      Cm =  0.0100     CD =  0.03767   =>   CDf =  0.00687    CDp =  0.03080

 Side 1  free  transition at x/c =  0.0606   44
 Side 2 forced transition at x/c =  1.0001   64

  10   rms: 0.1622E-03   max: 0.1291E-02   D at   80  1
       a = 13.000      CL =  1.1396
      Cm =  0.0100     CD =  0.03766   =>   CDf =  0.00686    CDp =  0.03079

 Side 1  free  transition at x/c =  0.0606   44
 Side 2 forced transition at x/c =  1.0001   64

  11   rms: 0.4655E-05   max: -.4101E-04   C at   64  2
       a = 13.000      CL =  1.1396
      Cm =  0.0100     CD =  0.03766   =>   CDf =  0.00686    CDp =  0.03079

 Point added to stored polar  1
 Point written to save file  000004M0.1.log                                  
 Dump file unspecified or not available
 Calculating wake trajectory ...
 Calculating source influence matrix ...

 Solving BL system ...

 Side 1  free  transition at x/c =  0.0606   44
 Side 2 forced transition at x/c =  1.0001   64

   1   rms: 0.1374E+00   max: 0.5965E+00   T at   44  1   RLX: 0.778
       a = 14.000      CL =  1.1620
      Cm =  0.0091     CD =  0.04527   =>   CDf =  0.00661    CDp =  0.03866

 Side 1  free  transition at x/c =  0.0541   44
 Side 2 forced transition at x/c =  1.0001   63

   2   rms: 0.4605E-01   max: -.2594E+00   D at   44  1
       a = 14.000      CL =  1.1452
      Cm =  0.0081     CD =  0.04927   =>   CDf =  0.00690    CDp =  0.04237

 Side 1  free  transition at x/c =  0.0541   44
 Side 2 forced transition at x/c =  1.0001   63

   3   rms: 0.8280E-02   max: -.5798E-01   D at   79  1
       a = 14.000      CL =  1.1498
      Cm =  0.0089     CD =  0.04817   =>   CDf =  0.00667    CDp =  0.04150

 Side 1  free  transition at x/c =  0.0538   44
 Side 2 forced transition at x/c =  1.0001   63

   4   rms: 0.2738E-03   max: -.1605E-02   D at   72  2
       a = 14.000      CL =  1.1499
      Cm =  0.0089     CD =  0.04827   =>   CDf =  0.00669    CDp =  0.04157

 Side 1  free  transition at x/c =  0.0538   44
 Side 2 forced transition at x/c =  1.0001   63

   5   rms: 0.1393E-04   max: -.5418E-04   D at   76  1
       a = 14.000      CL =  1.1499
      Cm =  0.0089     CD =  0.04827   =>   CDf =  0.00669    CDp =  0.04157

 Point added to stored polar  1
 Point written to save file  000004M0.1.log                                  
 Dump file unspecified or not available
 Calculating wake trajectory ...
 Calculating source influence matrix ...

 Solving BL system ...

 Side 1  free  transition at x/c =  0.0538   44
 Side 2 forced transition at x/c =  1.0001   63

   1   rms: 0.1236E+00   max: 0.5311E+00   T at   44  1   RLX: 0.650
       a = 15.000      CL =  1.1608
      Cm =  0.0078     CD =  0.05579   =>   CDf =  0.00643    CDp =  0.04936

 Side 1  free  transition at x/c =  0.0503   44
 Side 2 forced transition at x/c =  1.0001   62

   2   rms: 0.4121E-01   max: -.1677E+00   C at   44  1
       a = 15.000      CL =  1.1585
      Cm =  0.0073     CD =  0.05972   =>   CDf =  0.00672    CDp =  0.05301

 Side 1  free  transition at x/c =  0.0487   44
 Side 2 forced transition at x/c =  1.0001   62

   3   rms: 0.4845E-02   max: -.5010E-01   D at   45  1
       a = 15.000      CL =  1.1576
      Cm =  0.0077     CDGot result {'DD': 0.01386, 'Dmin': 0.01334, 'LL': -0.2629}
Completed successfully in 2.12 seconds. [{'DD': 0.01386, 'Dmin': 0.01334, 'LL': -0.2629}]
 =  0.05910   =>   CDf =  0.00655    CDp =  0.05255

 Side 1  free  transition at x/c =  0.0488   44
 Side 2 forced transition at x/c =  1.0001   62

   4   rms: 0.9584E-03   max: -.4293E-02   D at   76  1
       a = 15.000      CL =  1.1583
      Cm =  0.0077     CD =  0.05906   =>   CDf =  0.00655    CDp =  0.05252

 Side 1  free  transition at x/c =  0.0488   44
 Side 2 forced transition at x/c =  1.0001   62

   5   rms: 0.4474E-04   max: -.2402E-03   D at   73  2
       a = 15.000      CL =  1.1583
      Cm =  0.0077     CD =  0.05908   =>   CDf =  0.00655    CDp =  0.05253

 Point added to stored polar  1
 Point written to save file  000004M0.1.log                                  
 Dump file unspecified or not available

.OPERva   c>  
 XFOIL   c>  
