Job launching after 0.35 seconds in submission.
Running python job.
Changed into dir /home/simonx/Documents/Udacity/Projects/capstone/PESM_NSGA2_CST_XFoil
Importing evaluationFunctionXFoil.py
Running evaluationFunctionXFoil.main()
0
1
2
0.04
resp: 
 ===================================================
  XFOIL Version 6.97
  Copyright (C) 2000   Mark Drela, Harold Youngren

  This software comes with ABSOLUTELY NO WARRANTY,
    subject to the GNU General Public License.

  Caveat computor
 ===================================================

 File  xfoil.def  not found

   QUIT    Exit program

  .OPER    Direct operating point(s)
  .MDES    Complex mapping design routine
  .QDES    Surface speed design routine
  .GDES    Geometry design routine

   SAVE f  Write airfoil to labeled coordinate file
   PSAV f  Write airfoil to plain coordinate file
   ISAV f  Write airfoil to ISES coordinate file
   MSAV f  Write airfoil to MSES coordinate file
   REVE    Reverse written-airfoil node ordering
   DELI i  Change written-airfoil file delimiters

   LOAD f  Read buffer airfoil from coordinate file
   NACA i  Set NACA 4,5-digit airfoil and buffer airfoil
   INTE    Set buffer airfoil by interpolating two airfoils
   NORM    Buffer airfoil normalization toggle
   HALF    Halve the number of points in buffer airfoil
   XYCM rr Change CM reference location, currently  0.25000 0.00000

   BEND    Display structural properties of current airfoil

   PCOP    Set current-airfoil panel nodes directly from buffer airfoil points
   PANE    Set current-airfoil panel nodes ( 160 ) based on curvature
  .PPAR    Show/change paneling

  .PLOP    Plotting options

   WDEF f  Write  current-settings file
   RDEF f  Reread current-settings file
   NAME s  Specify new airfoil name
   NINC    Increment name version number

   Z       Zoom    | (available in all menus)
   U       Unzoom  | 

 XFOIL   c>   ...............................................

  G raphics-enable flag:        T
  S ize of plot object          10.00"
  A spect ratio of plot object   0.5500
  P age dimensions              11.00 x  8.50"
  M argins from page edges       0.00",  0.00"
  F ont size (relative)          0.0150
  W indow/screen size fraction   0.8000
  B lowup input method:        Cursor    
  O rientation of plot:        Landscape 
  C olor PostScript output?     F

      Option, Value   (or <Return>)    c>   ...............................................

  G raphics-enable flag:        F
  S ize of plot object          10.00"
  A spect ratio of plot object   0.5500
  P age dimensions              11.00 x  8.50"
  M argins from page edges       0.00",  0.00"
  F ont size (relative)          0.0150
  W indow/screen size fraction   0.8000
  B lowup input method:        Cursor    
  O rientation of plot:        Landscape 
  C olor PostScript output?     F

      Option, Value   (or <Return>)    c>  
 XFOIL   c>  
 Labeled airfoil file.  Name:  000249                                          

 Number of input coordinate points: 200
 Clockwise ordering
 Max thickness =     0.138554  at x =   0.158
 Max camber    =     0.116220  at x =   0.406

  LE  x,y  =  -0.00005   0.00183  |   Chord =   0.99992
  TE  x,y  =   0.99988   0.00006  |

 Current airfoil nodes set from buffer airfoil nodes ( 200 )

 XFOIL   c>  
 You are working with the buffer airfoil

.GDES   c>  
  i       x        y      angle
   2   0.9990   0.0005    0.027
   3   0.9978   0.0011    0.038
   4   0.9961   0.0019    0.033
   5   0.9938   0.0030    0.056
   6   0.9911   0.0043    0.061
   7   0.9880   0.0058    0.085
   8   0.9843   0.0076    0.093
   9   0.9801   0.0095    0.111
  10   0.9755   0.0117    0.106
  11   0.9704   0.0141    0.127
  12   0.9649   0.0167    0.152
  13   0.9589   0.0195    0.144
  14   0.9524   0.0225    0.181
  15   0.9455   0.0257    0.178
  16   0.9382   0.0291    0.194
  17   0.9304   0.0326    0.220
  18   0.9222   0.0362    0.229
  19   0.9135   0.0400    0.241
  20   0.9045   0.0440    0.260
  21   0.8951   0.0481    0.275
  22   0.8853   0.0523    0.299
  23   0.8751   0.0565    0.304
  24   0.8645   0.0609    0.330
  25   0.8536   0.0654    0.343
  26   0.8423   0.0699    0.360
  27   0.8307   0.0744    0.379
  28   0.8187   0.0790    0.395
  29   0.8065   0.0836    0.409
  30   0.7939   0.0883    0.433
  31   0.7810   0.0929    0.450
  32   0.7679   0.0975    0.456
  33   0.7545   0.1021    0.488
  34   0.7409   0.1067    0.493
  35   0.7270   0.1111    0.517
  36   0.7129   0.1156    0.527
  37   0.6986   0.1199    0.546
  38   0.6841   0.1242    0.562
  39   0.6694   0.1283    0.578
  40   0.6545   0.1324    0.588
  41   0.6395   0.1363    0.608
  42   0.6243   0.1401    0.618
  43   0.6091   0.1437    0.639
  44   0.5937   0.1472    0.643
  45   0.5782   0.1505    0.665
  46   0.5627   0.1536    0.674
  47   0.5471   0.1566    0.693
  48   0.5314   0.1594    0.697
  49   0.5157   0.1620    0.721
  50   0.5000   0.1644    0.729
  51   0.4843   0.1666    0.746
  52   0.4686   0.1685    0.758
  53   0.4529   0.1703    0.780
  54   0.4373   0.1718    0.788
  55   0.4218   0.1732    0.812
  56   0.4063   0.1743    0.829
  57   0.3909   0.1751    0.846
  58   0.3757   0.1758    0.872
  59   0.3605   0.1761    0.894
  60   0.3455   0.1763    0.915
  61   0.3306   0.1762    0.943
  62   0.3159   0.1759    0.974
  63   0.3014   0.1753    1.009
  64   0.2871   0.1745    1.035
  65   0.2730   0.1735    1.081
  66   0.2591   0.1722    1.111
  67   0.2455   0.1706    1.165
  68   0.2321   0.1688    1.206
  69   0.2190   0.1668    1.254
  70   0.2061   0.1645    1.315
  71   0.1935   0.1620    1.368
  72   0.1813   0.1592    1.430
  73   0.1693   0.1562    1.498
  74   0.1577   0.1529    1.566
  75   0.1464   0.1494    1.649
  76   0.1355   0.1456    1.718
  77   0.1249   0.1417    1.806
  78   0.1147   0.1375    1.896
  79   0.1049   0.1330    1.994
  80   0.0955   0.1283    2.081
  81   0.0865   0.1235    2.187
  82   0.0778   0.1184    2.289
  83   0.0696   0.1131    2.407
  84   0.0618   0.1075    2.513
  85   0.0545   0.1018    2.622
  86   0.0476   0.0960    2.750
  87   0.0411   0.0899    2.854
  88   0.0351   0.0837    2.980
  89   0.0296   0.0773    3.091
  90   0.0245   0.0707    3.200
  91   0.0199   0.0641    3.315
  92   0.0157   0.0573    3.425
  93   0.0120   0.0504    3.501
  94   0.0089   0.0433    3.611
  95   0.0062   0.0363    3.676
  96   0.0039   0.0291    3.740
  97   0.0022   0.0219    3.801
  98   0.0010   0.0146    3.832
  99   0.0002   0.0073    3.857
 100   0.0000   0.0000    9.202
 101   0.0002  -0.0019   14.002
 102   0.0010  -0.0038   12.651
 103   0.0022  -0.0057   10.980
 104   0.0039  -0.0074    9.335
 105   0.0062  -0.0090    7.858
 106   0.0089  -0.0104    6.703
 107   0.0120  -0.0117    5.684
 108   0.0157  -0.0127    4.902
 109   0.0199  -0.0135    4.218
 110   0.0245  -0.0140    3.676
 111   0.0296  -0.0142    3.177
 112   0.0351  -0.0142    2.783
 113   0.0411  -0.0138    2.409
 114   0.0476  -0.0132    2.091
 115   0.0545  -0.0123    1.801
 116   0.0618  -0.0110    1.542
 117   0.0696  -0.0095    1.297
 118   0.0778  -0.0077    1.089
 119   0.0865  -0.0056    0.886
 120   0.0955  -0.0033    0.700
 121   0.1049  -0.0008    0.536
 122   0.1147   0.0020    0.369
 123   0.1249   0.0049    0.225
 124   0.1355   0.0079    0.091
 125   0.1464   0.0111   -0.036
 126   0.1577   0.0144   -0.158
 127   0.1693   0.0178   -0.266
 128   0.1813   0.0212   -0.364
 129   0.1935   0.0245   -0.458
 130   0.2061   0.0279   -0.537
 131   0.2190   0.0312   -0.618
 132   0.2321   0.0345   -0.679
 133   0.2455   0.0376   -0.738
 134   0.2591   0.0406   -0.787
 135   0.2730   0.0434   -0.820
 136   0.2871   0.0461   -0.857
 137   0.3014   0.0487   -0.873
 138   0.3159   0.0510   -0.892
 139   0.3306   0.0531   -0.890
 140   0.3455   0.0550   -0.893
 141   0.3605   0.0567   -0.881
 142   0.3757   0.0581   -0.863
 143   0.3909   0.0594   -0.840
 144   0.4063   0.0604   -0.812
 145   0.4218   0.0612   -0.779
 146   0.4373   0.0618   -0.742
 147   0.4529   0.0622   -0.699
 148   0.4686   0.0625   -0.666
 149   0.4843   0.0625   -0.617
 150   0.5000   0.0624   -0.573
 151   0.5157   0.0621   -0.534
 152   0.5314   0.0616   -0.486
 153   0.5471   0.0611   -0.453
 154   0.5627   0.0604   -0.407
 155   0.5782   0.0596   -0.376
 156   0.5937   0.0587   -0.339
 157   0.6091   0.0577   -0.310
 158   0.6243   0.0566   -0.288
 159   0.6395   0.0555   -0.263
 160   0.6545   0.0543   -0.249
 161   0.6694   0.0531   -0.228
 162   0.6841   0.0518   -0.227
 163   0.6986   0.0505   -0.218
 164   0.7129   0.0491   -0.214
 165   0.7270   0.0477   -0.225
 166   0.7409   0.0463   -0.222
 167   0.7545   0.0448   -0.241
 168   0.7679   0.0433   -0.247
 169   0.7810   0.0418   -0.260
 170   0.7939   0.0403   -0.287
 171   0.8065   0.0387   -0.299
 172   0.8187   0.0371   -0.320
 173   0.8307   0.0355   -0.341
 174   0.8423   0.0338   -0.364
 175   0.8536   0.0321   -0.378
 176   0.8645   0.0304   -0.406
 177   0.8751   0.0287   -0.423
 178   0.8853   0.0270   -0.434
 179   0.8951   0.0252   -0.457
 180   0.9045   0.0235   -0.460
 181   0.9135   0.0217   -0.476
 182   0.9222   0.0199   -0.474
 183   0.9304   0.0182   -0.479
 184   0.9382   0.0165   -0.478
 185   0.9455   0.0148   -0.470
 186   0.9524   0.0132   -0.466
 187   0.9589   0.0116   -0.445
 188   0.9649   0.0100   -0.436
 189   0.9704   0.0086   -0.411
 190   0.9755   0.0072   -0.381
 191   0.9801   0.0059   -0.356
 192   0.9843   0.0047   -0.322
 193   0.9880   0.0037   -0.291
 194   0.9911   0.0027   -0.273
 195   0.9938   0.0019   -0.209
 196   0.9961   0.0012   -0.163
 197   0.9978   0.0007   -0.119
 198   0.9990   0.0003   -0.138
 199   0.9998   0.0001    0.093

 Maximum panel corner angle = 14.002   at  i,x,y  = 101   0.0002  -0.0019

 Enter corner angle criterion for refinement (deg):   7.001
 Enter type of spline parameter (1=uniform, 2=arclength):   1
 Enter refinement x limits:  -0.10000   1.10000
 Number of points added:           12
 Max thickness =     0.138471  at x =   0.158
 Max camber    =     0.117424  at x =   0.406

 Maximum panel corner angle = 12.747   at  i,x,y  = 103   0.0001  -0.0016

.GDES   c>  
 Buffer airfoil is not identical to current airfoil

 XFOIL   c>  
 Blunt trailing edge.  Gap =  0.00027

 Paneling parameters used...
   Number of panel nodes       160
   Panel bunching parameter    1.000
   TE/LE panel density ratio   0.150
   Refined-area/LE panel density ratio    0.200
   Top    side refined area x/c limits  1.000 1.000
   Bottom side refined area x/c limits  1.000 1.000

 XFOIL   c>  
Enter output filename   s>  
 XFOIL   c>  
.OPERi   c>   Current iteration limit:          20

Enter new iteration limit   i>  
Enter new iteration limit   i>  
Enter new iteration limit   i>  
.OPERi   c>  
 M  =    0.0000
 Re =  0.3000E+06

.OPERv   c>  
 Sonic Cp =   -420.65      Sonic Q/Qinf =    22.825


.OPERv   c>  
 Polar  1 newly created for accumulation
 Airfoil archived with polar: 000249                                          

Enter  polar save filename  OR  <return> for no file   s>  
 New polar save file available

Enter  polar dump filename  OR  <return> for no file   s>  
 Polar dump file will NOT be written

 Polar accumulation enabled

.OPERva   c>   Calculating unit vorticity distributions ...
 Calculating wake trajectory ...
 Calculating source influence matrix ...

 Solving BL system ...

 Initializing BL ...
    side            1  ...
 MRCHUE: Inverse mode at  52     Hk =   4.369
 MRCHUE: Inverse mode at  53     Hk =   5.194
 MRCHUE: Inverse mode at  54     Hk =   6.002
 MRCHUE: Inverse mode at  55     Hk =   6.798
 MRCHUE: Inverse mode at  56     Hk =   7.585
 MRCHUE: Inverse mode at  57     Hk =   8.365
 MRCHUE: Inverse mode at  58     Hk =   5.137
 MRCHUE: Inverse mode at  59     Hk =   2.942
 MRCHUE: Inverse mode at  84     Hk =   2.500
 MRCHUE: Inverse mode at  85     Hk =   2.500
 MRCHUE: Convergence failed at  86  side 1    Res =  0.8442E+01
    side            2  ...
 MRCHUE: Inverse mode at  24     Hk =   3.861
 MRCHUE: Inverse mode at  25     Hk =   4.467
 MRCHUE: Inverse mode at  26     Hk =   5.092
 MRCHUE: Inverse mode at  27     Hk =   5.745
 MRCHUE: Inverse mode at  28     Hk =   6.435
 MRCHUE: Inverse mode at  29     Hk =   7.167
 MRCHUE: Inverse mode at  30     Hk =   7.941
 MRCHUE: Inverse mode at  31     Hk =   8.752
 MRCHUE: Inverse mode at  32     Hk =   9.587
 MRCHUE: Inverse mode at  33     Hk =   7.548
 MRCHUE: Inverse mode at  34     Hk =   4.700
 MRCHUE: Inverse mode at  35     Hk =   3.037
 MRCHUE: Inverse mode at  36     Hk =   2.500

 MRCHDU: Convergence failed at  86  side 1    Res =  0.7483E+01
 Side 1  free  transition at x/c =  0.4805   58
 Side 2  free  transition at x/c =  0.1827   33

   1   rms: 0.3818E+00   max: 0.2058E+01   T at   33  2   RLX: 0.284
       a =  2.000      CL =  1.6220
      Cm = -0.2755     CD =  0.01018   =>   CDf =  0.00867    CDp =  0.00151

 Side 1  free  transition at x/c =  0.4896   58
 Side 2  free  transition at x/c =  0.1700   32

   2   rms: 0.1866E+00   max: 0.1131E+01   T at   32  2   RLX: 0.528
       a =  2.000      CL =  1.5594
      Cm = -0.2615     CD =  0.01416   =>   CDf =  0.00880    CDp =  0.00536

 Side 1  free  transition at x/c =  0.5130   58
 Side 2  free  transition at x/c =  0.1580   32

   3   rms: 0.1539E+00   max: 0.1811E+01   T at    2  2   RLX: 0.534
       a =  2.000      CL =  1.5372
      Cm = -0.2565     CD =  0.01491   =>   CDf =  0.00819    CDp =  0.00672

 Side 1  free  transition at x/c =  0.5325   59
 Side 2  free  transition at x/c =  0.1521   32

   4   rms: 0.8860E-01   max: 0.4735E+00   D at   59  1
       a =  2.000      CL =  1.5071
      Cm = -0.2497     CD =  0.01634   =>   CDf =  0.00747    CDp =  0.00887

 Side 1  free  transition at x/c =  0.5408   60
 Side 2  free  transition at x/c =  0.1486   32

   5   rms: 0.1159E-01   max: -.8401E-01   C at   60  1
       a =  2.000      CL =  1.5027
      Cm = -0.2488     CD =  0.01683   =>   CDf =  0.00761    CDp =  0.00921

 Side 1  free  transition at x/c =  0.5434   60
 Side 2  free  transition at x/c =  0.1475   32

   6   rms: 0.1651E-02   max: -.8893E-02   D at   34  2
       a =  2.000      CL =  1.5033
      Cm = -0.2489     CD =  0.01685   =>   CDf =  0.00755    CDp =  0.00930

 Side 1  free  transition at x/c =  0.5432   60
 Side 2  free  transition at x/c =  0.1475   32

   7   rms: 0.1409E-04   max: -.7896E-04   D at   83  2
       a =  2.000      CL =  1.5033
      Cm = -0.2489     CD =  0.01685   =>   CDf =  0.00755    CDp =  0.00929

 Point added to stored polar  1
 Point written to save file  000249M0.04.log                                 
 Dump file unspecified or not available
 Calculating wake trajectory ...
 Calculating source influence matrix ...

 Solving BL system ...

 Side 1  free  transition at x/c =  0.5432   60
 Side 2  free  transition at x/c =  0.1475   32

   1   rms: 0.1673E+00   max: -.1487E+01   T at   32  2   RLX: 0.336
       a =  3.000      CL =  1.5343
      Cm = -0.2478     CD =  0.01711   =>   CDf =  0.00736    CDp =  0.00975

 Side 1  free  transition at x/c =  0.5324   60
 Side 2  free  transition at x/c =  0.1553   31

   2   rms: 0.3300E+00   max: -.5206E+01   T at    2  1   RLX: 0.096
       a =  3.000      CL =  1.5391
      Cm = -0.2472     CD =  0.01780   =>   CDf =  0.00764    CDp =  0.01015

 Side 1  free  transition at x/c =  0.5302   60
 Side 2  free  transition at x/c =  0.1572   31

   3   rms: 0.1165E+00   max: -.1202E+01   T at   31  2   RLX: 0.416
       a =  3.000      CL =  1.5600
      Cm = -0.2459     CD =  0.01789   =>   CDf =  0.00765    CDp =  0.01024

 Side 1  free  transition at x/c =  0.5211   60
 Side 2  free  transition at x/c =  0.1662   32

   4   rms: 0.7412E-01   max: 0.7915E+00   D at   32  2
       a =  3.000      CL =  1.5951
      Cm = -0.2456     CD =  0.01780   =>   CDf =  0.00770    CDp =  0.01010

 Side 1  free  transition at x/c =  0.5117   59
 Side 2  free  transition at x/c =  0.1741   32

   5   rms: 0.2562E-01   max: -.1865E+00   D at   33  2
       a =  3.000      CL =  1.5938
      Cm = -0.2453     CD =  0.01781   =>   CDf =  0.00779    CDp =  0.01002

 Side 1  free  transition at x/c =  0.5113   59
 Side 2  free  transition at x/c =  0.1752   33

   6   rms: 0.3400E-02   max: 0.5083E-01   D at   33  2
       a =  3.000      CL =  1.5945
      Cm = -0.2455     CD =  0.01778   =>   CDf =  0.00775    CDp =  0.01003

 Side 1  free  transition at x/c =  0.5112   59
 Side 2  free  transition at x/c =  0.1753   33

   7   rms: 0.5255E-03   max: 0.4518E-02   D at   33  2
       a =  3.000      CL =  1.5945
      Cm = -0.2455     CD =  0.01778   =>   CDf =  0.00775    CDp =  0.01003

 Side 1  free  transition at x/c =  0.5112   59
 Side 2  free  transition at x/c =  0.1753   33

   8   rms: 0.2054E-05   max: 0.1610E-04   T at   33  2
       a =  3.000      CL =  1.5945
      Cm = -0.2455     CD =  0.01778   =>   CDf =  0.00775    CDp =  0.01003

 Point added to stored polar  1
 Point written to save file  000249M0.04.log                                 
 Dump file unspecified or not available
 Calculating wake trajectory ...
 Calculating source influence matrix ...

 Solving BL system ...

 Side 1  free  transition at x/c =  0.5112   59
 Side 2  free  transition at x/c =  0.1753   33

   1   rms: 0.2783E+00   max: -.2157E+01   T at   33  2   RLX: 0.232
       a =  4.000      CL =  1.6157
      Cm = -0.2450     CD =  0.01773   =>   CDf =  0.00754    CDp =  0.01020

 Side 1  free  transition at x/c =  0.5024   60
 Side 2  free  transition at x/c =  0.1856   32

   2   rms: 0.2934E+00   max: -.4510E+01   T at    2  1   RLX: 0.111
       a =  4.000      CL =  1.6206
      Cm = -0.2443     CD =  0.01829   =>   CDf =  0.00775    CDp =  0.01055

 Side 1  free  transition at x/c =  0.4999   60
 Side 2  free  transition at x/c =  0.1881   32

   3   rms: 0.1110E+00   max: -.8561E+00   T at   32  2   RLX: 0.584
       a =  4.000      CL =  1.6528
      Cm = -0.2420     CD =  0.01883   =>   CDf =  0.00779    CDp =  0.01105

 Side 1  free  transition at x/c =  0.4897   59
 Side 2  free  transition at x/c =  0.2028   33

   4   rms: 0.5561E-01   max: 0.7123E+00   D at   33  2
       a =  4.000      CL =  1.6673
      Cm = -0.2390     CD =  0.01895   =>   CDf =  0.00776    CDp =  0.01118

 Side 1  free  transition at x/c =  0.4782   59
 Side 2  free  transition at x/c =  0.2066   33

   5   rms: 0.9355E-02   max: 0.5215E-01   D at   60  1
       a =  4.000      CL =  1.6699
      Cm = -0.2395     CD =  0.01909   =>   CDf =  0.00790    CDp =  0.01119

 Side 1  free  transition at x/c =  0.4797   59
 Side 2  free  transition at x/c =  0.2068   33

   6   rms: 0.1301E-02   max: -.7292E-02   D at   60  1
       a =  4.000      CL =  1.6708
      Cm = -0.2397     CD =  0.01910   =>   CDf =  0.00784    CDp =  0.01125

 Side 1  free  transition at x/c =  0.4796   59
 Side 2  free  transition at x/c =  0.2069   33

   7   rms: 0.1564E-04   max: -.8985E-04   D at   86  1
       a =  4.000      CL =  1.6708
      Cm = -0.2397     CD =  0.01910   =>   CDf =  0.00785    CDp =  0.01125

 Point added to stored polar  1
 Point written to save file  000249M0.04.log                                 
 Dump file unspecified or not available
 Calculating wake trajectory ...
 Calculating source influence matrix ...

 Solving BL system ...

 Side 1  free  transition at x/c =  0.4796   59
 Side 2  free  transition at x/c =  0.2069   33

   1   rms: 0.1647E+00   max: -.1419E+01   T at   33  2   RLX: 0.352
       a =  5.000      CL =  1.6985
      Cm = -0.2379     CD =  0.01982   =>   CDf =  0.00761    CDp =  0.01220

 MRCHDU: Convergence failed at  34  side 2    Res =  0.3605E+01
 MRCHDU: Convergence failed at  35  side 2    Res =  0.4895E+01
 MRCHDU: Convergence failed at  36  side 2    Res =  0.3710E+01
 MRCHDU: Convergence failed at  37  side 2    Res =  0.6711E+01
 MRCHDU: Convergence failed at  38  side 2    Res =  0.1080E+02
 MRCHDU: Convergence failed at  39  side 2    Res =  0.1675E+02
 MRCHDU: Convergence failed at  40  side 2    Res =  0.2041E+02
 MRCHDU: Convergence failed at  41  side 2    Res =  0.2074E+02
 MRCHDU: Convergence failed at  42  side 2    Res =  0.1834E+02
 MRCHDU: Convergence failed at  43  side 2    Res =  0.1493E+02
 MRCHDU: Convergence failed at  44  side 2    Res =  0.1146E+02
 MRCHDU: Convergence failed at  45  side 2    Res =  0.8604E+01
 MRCHDU: Convergence failed at  46  side 2    Res =  0.6636E+01
 MRCHDU: Convergence failed at  47  side 2    Res =  0.5147E+01
 MRCHDU: Convergence failed at  48  side 2    Res =  0.4059E+01
 MRCHDU: Convergence failed at  49  side 2    Res =  0.3201E+01
 MRCHDU: Convergence failed at  50  side 2    Res =  0.2571E+01
 MRCHDU: Convergence failed at  51  side 2    Res =  0.5840E+01
 MRCHDU: Convergence failed at  52  side 2    Res =  0.5741E+01
 MRCHDU: Convergence failed at  53  side 2    Res =  0.6155E+01
 MRCHDU: Convergence failed at  54  side 2    Res =  0.6862E+01
 MRCHDU: Convergence failed at  55  side 2    Res =  0.1033E+02
 Side 1  free  transition at x/c =  0.4701   59
 Side 2  free  transition at x/c =  0.2242   33

   2   rms: 0.1966E+00   max: -.1075E+01   D at   56  2   RLX: 0.465
       a =  5.000      CL =  1.6983
      Cm = -0.2331     CD =  0.01974   =>   CDf =  0.00691    CDp =  0.01282

 Side 1  free  transition at x/c =  0.4588   59
 Side 2  free  transition at x/c =  0.2268   34

   3   rms: 0.1534E+00   max: -.9933E+00   T at   34  2   RLX: 0.503
       a =  5.000      CL =  1.7290
      Cm = -0.2344     CD =  0.02132   =>   CDf =  0.00810    CDp =  0.01322

 Side 1  free  transition at x/c =  0.4548   58
 Side 2  free  transition at x/c =  0.2348   34

   4   rms: 0.1746E+00   max: -.1335E+01   D at   40  2   RLX: 0.375
       a =  5.000      CL =  1.7341
      Cm = -0.2341     CD =  0.02122   =>   CDf =  0.00794    CDp =  0.01328

 Side 1  free  transition at x/c =  0.4526   58
 Side 2  free  transition at x/c =  0.2435   34

   5   rms: 0.1009E+00   max: -.8314E+00   D at   42  2   RLX: 0.601
       a =  5.000      CL =  1.7383
      Cm = -0.2337     CD =  0.02112   =>   CDf =  0.00798    CDp =  0.01314

 Side 1  free  transition at x/c =  0.4503   58
 Side 2  free  transition at x/c =  0.2471   35

   6   rms: 0.4216E-01   max: -.4463E+00   D at   42  2
       a =  5.000      CL =  1.7434
      Cm = -0.2341     CD =  0.02091   =>   CDf =  0.00780    CDp =  0.01311

 Side 1  free  transition at x/c =  0.4488   58
 Side 2  free  transition at x/c =  0.2470   35

   7   rms: 0.3512E-02   max: -.4315E-01   D at   42  2
       a =  5.000      CL =  1.7434
      Cm = -0.2340     CD =  0.02092   =>   CDf =  0.00781    CDp =  0.01311

 Side 1  free  transition at x/c =  0.4488   58
 Side 2  free  transition at x/c =  0.2464   35

   8   rms: 0.6983E-04   max: -.1413E-02   D at   36  2
       a =  5.000      CL =  1.7434
      Cm = -0.2340     CD =  0.02092   =>   CDf =  0.00781    CDp =  0.01311

 Point added to stored polar  1
 Point written to save file  000249M0.04.log                                 
 Dump file unspecified or not available
 Calculating wake trajectory ...
 Calculating source influence matrix ...

 Solving BL system ...

 Side 1  free  transition at x/c =  0.4488   58
 Side 2  free  transition at x/c =  0.2464   35

   1   rms: 0.1789E+00   max: -.1548E+01   T at   35  2   RLX: 0.323
       a =  6.000      CL =  1.7654
      Cm = -0.2322     CD =  0.02157   =>   CDf =  0.00783    CDp =  0.01375

 Side 1  free  transition at x/c =  0.4391   57
 Side 2  free  transition at x/c =  0.2600   35

   2   rms: 0.1118E+00   max: -.1172E+01   T at   35  2   RLX: 0.427
       a =  6.000      CL =  1.7821
      Cm = -0.2298     CD =  0.02262   =>   CDf =  0.00769    CDp =  0.01493

 MRCHDU: Convergence failed at  36  side 2    Res =  0.2461E+01
 MRCHDU: Convergence failed at  37  side 2    Res =  0.1147E+02
 MRCHDU: Convergence failed at  38  side 2    Res =  0.3179E+01
 MRCHDU: Convergence failed at  39  side 2    Res =  0.2965E+01
 MRCHDU: Convergence failed at  40  side 2    Res =  0.2939E+01
 MRCHDU: Convergence failed at  41  side 2    Res =  0.2741E+01
 MRCHDU: Convergence failed at  42  side 2    Res =  0.2874E+01
 MRCHDU: Convergence failed at  43  side 2    Res =  0.2832E+01
 MRCHDU: Convergence failed at  44  side 2    Res =  0.2807E+01
 MRCHDU: Convergence failed at  45  side 2    Res =  0.2880E+01
 MRCHDU: Convergence failed at  46  side 2    Res =  0.6451E+01
 Side 1  free  transition at x/c =  0.4302   58
 Side 2  free  transition at x/c =  0.2781   35

   3   rms: 0.1360E+00   max: -.8538E+00   D at   46  2   RLX: 0.586
       a =  6.000      CL =  1.7959
      Cm = -0.2287     CD =  0.02286   =>   CDf =  0.00745    CDp =  0.01541

 Side 1  free  transition at x/c =  0.4235   58
 Side 2  free  transition at x/c =  0.2971   36

   4   rms: 0.3382E-01   max: -.2763E+00   D at   37  2
       a =  6.000      CL =  1.8100
      Cm = -0.2281     CD =  0.02344   =>   CDf =  0.00789    CDp =  0.01555

 Side 1  free  transition at x/c =  0.4204   57
 Side 2  free  transition at x/c =  0.3084   37

   5   rms: 0.1347E-01   max: 0.2153E+00   D at   37  2
       a =  6.000      CL =  1.8107
      Cm = -0.2283     CD =  0.02339   =>   CDf =  0.00780    CDp =  0.01559

 Side 1  free  transition at x/c =  0.4201   57
 Side 2  free  transition at x/c =  0.3064   37

   6   rms: 0.1774E-02   max: 0.2153E-01   C at   37  2
       a =  6.000      CL =  1.8107
      Cm = -0.2283     CD =  0.02339   =>   CDf =  0.00779    CDp =  0.01560

 Side 1  free  transition at x/c =  0.4201   57
 Side 2  free  transition at x/c =  0.3058   37

   7   rms: 0.2152E-04   max: -.4148E-03   D at   39  2
       a =  6.000      CL =  1.8107
      Cm = -0.2283     CD =  0.02339   =>   CDf =  0.00780    CDp =  0.01560

 Point added to stored polar  1
 Point written to save file  000249M0.04.log                                 
 Dump file unspecified or not available
 Calculating wake trajectory ...
 Calculating source influence matrix ...

 Solving BL system ...

 Side 1  free  transition at x/c =  0.4201   57
 Side 2  free  transition at x/c =  0.3058   37

   1   rms: 0.1789E+00   max: -.1394E+01   T at   37  2   RLX: 0.359
       a =  7.000      CL =  1.8347
      Cm = -0.2265     CD =  0.02426   =>   CDf =  0.00781    CDp =  0.01645

 Side 1  free  transition at x/c =  0.4080   57
 Side 2  free  transition at x/c =  0.3357   39

   2   rms: 0.2000E+00   max: -.1628E+01   C at   39  2   RLX: 0.307
       a =  7.000      CL =  1.8496
      Cm = -0.2260     CD =  0.02504   =>   CDf =  0.00750    CDp =  0.01753

 Side 1  free  transition at x/c =  0.4032   58
 Side 2  free  transition at x/c =  0.3630   39

   3   rms: 0.3148E+00   max: 0.4573E+01   T at    2  1   RLX: 0.197
       a =  7.000      CL =  1.8566
      Cm = -0.2257     CD =  0.02543   =>   CDf =  0.00778    CDp =  0.01765

 Side 1  free  transition at x/c =  0.4014   57
 Side 2  free  transition at x/c =  0.3767   40

   4   rms: 0.1946E+00   max: -.2669E+01   C at   40  2   RLX: 0.187
       a =  7.000      CL =  1.8620
      Cm = -0.2257     CD =  0.02556   =>   CDf =  0.00777    CDp =  0.01780

 Side 1  free  transition at x/c =  0.3997   57
 Side 2  free  transition at x/c =  0.3916   41

   5   rms: 0.2357E+00   max: -.3432E+01   C at   41  2   RLX: 0.146
       a =  7.000      CL =  1.8657
      Cm = -0.2257     CD =  0.02569   =>   CDf =  0.00772    CDp =  0.01797

 Side 1  free  transition at x/c =  0.3985   57
 Side 2  free  transition at x/c =  0.4096   42

   6   rms: 0.2855E+00   max: -.4532E+01   C at   42  2   RLX: 0.110
       a =  7.000      CL =  1.8683
      Cm = -0.2258     CD =  0.02577   =>   CDf =  0.00768    CDp =  0.01809

 Side 1  free  transition at x/c =  0.3978   57
 Side 2  free  transition at x/c =  0.4281   43

   7   rms: 0.3659E+00   max: -.6203E+01   C at   43  2   RLX: 0.081
       a =  7.000      CL =  1.8705
      Cm = -0.2259     CD =  0.02582   =>   CDf =  0.00765    CDp =  0.01817

 Side 1  free  transition at x/c =  0.3973   57
 Side 2  free  transition at x/c =  0.4469   44

   8   rms: 0.4823E+00   max: -.8602E+01   C at   44  2   RLX: 0.058
       a =  7.000      CL =  1.8723
      Cm = -0.2261     CD =  0.02584   =>   CDf =  0.00761    CDp =  0.01823

 Side 1  free  transition at x/c =  0.3969   57
 Side 2  free  transition at x/c =  0.9418   68

   9   rms: 0.1046E+02   max: -.1440E+03   C at   68  2   RLX: 0.003
       a =  7.000      CL =  1.8720
      Cm = -0.2259     CD =  0.02529   =>   CDf =  0.00703    CDp =  0.01826

 Side 1  free  transition at x/c =  0.3970   57
 Side 2  free  transition at x/c =  0.9536   69

  10   rms: 0.1179E+02   max: -.1727E+03   C at   69  2   RLX: 0.003
       a =  7.000      CL =  1.8716
      Cm = -0.2258     CD =  0.02529   =>   CDf =  0.00703    CDp =  0.01826

 Side 1  free  transition at x/c =  0.3970   57
 Side 2  free  transition at x/c =  0.9676   70

  11   rms: 0.1367E+02   max: -.2225E+03   C at   70  2   RLX: 0.002
       a =  7.000      CL =  1.8713
      Cm = -0.2258     CD =  0.02529   =>   CDf =  0.00703    CDp =  0.01826

 Side 1  free  transition at x/c =  0.3970   57
 Side 2  free  transition at x/c =  0.9789   71

  12   rms: 0.1606E+02   max: -.3121E+03   C at   71  2   RLX: 0.002
       a =  7.000      CL =  1.8711
      Cm = -0.2257     CD =  0.02529   =>   CDf =  0.00703    CDp =  0.01826

 Side 1  free  transition at x/c =  0.3970   57
 Side 2  free  transition at x/c =  0.9910   72

  13   rms: 0.3223E+01   max: -.8729E+02   C at   72  2   RLX: 0.006
       a =  7.000      CL =  1.8703
      Cm = -0.2255     CD =  0.02528   =>   CDf =  0.00703    CDp =  0.01825

 Side 1  free  transition at x/c =  0.3970   57
 Side 2  free  transition at x/c =  0.9943   72

  14   rms: 0.1295E+02   max: -.3514E+03   C at   72  2   RLX: 0.001
       a =  7.000      CL =  1.8701
      Cm = -0.2255     CD =  0.02528   =>   CDf =  0.00703    CDp =  0.01824

 Side 1  free  transition at x/c =  0.3970   57
 Side 2  free  transition at x/c =  0.9961   72

  15   rms: 0.3221E+02   max: 0.8738E+03   C at   72  2   RLX: 0.002
       a =  7.000      CL =  1.8699
      Cm = -0.2254     CD =  0.02527   =>   CDf =  0.00703    CDp =  0.01824

 Side 1  free  transition at x/c =  0.3970   57
 Side 2  free  transition at x/c =  0.9916   72

  16   rms: 0.3856E+01   max: -.1045E+03   C at   72  2   RLX: 0.005
       a =  7.000      CL =  1.8692
      Cm = -0.2253     CD =  0.02527   =>   CDf =  0.00703    CDp =  0.01824

 Side 1  free  transition at x/c =  0.3970   57
 Side 2  free  transition at x/c =  0.9945   72

  17   rms: 0.1606E+02   max: -.4356E+03   C at   72  2   RLX: 0.001
       a =  7.000      CL =  1.8690
      Cm = -0.2252     CD =  0.02527   =>   CDf =  0.00703    CDp =  0.01823

 Side 1  free  transition at x/c =  0.3970   57
 Side 2  free  transition at x/c =  0.9962   72

  18   rms: 0.2361E+02   max: 0.6405E+03   C at   72  2   RLX: 0.002
       a =  7.000      CL =  1.8687
      Cm = -0.2252     CD =  0.02526   =>   CDf =  0.00703    CDp =  0.01823

 Side 1  free  transition at x/c =  0.3970   57
 Side 2  free  transition at x/c =  0.9918   72

  19   rms: 0.4191E+01   max: -.1136E+03   C at   72  2   RLX: 0.004
       a =  7.000      CL =  1.8681
      Cm = -0.2250     CD =  0.02526   =>   CDf =  0.00703    CDp =  0.01823

 Side 1  free  transition at x/c =  0.3971   57
 Side 2  free  transition at x/c =  0.9946   72

  20   rms: 0.1845E+02   max: -.5006E+03   C at   72  2   RLX: 0.001
       a =  7.000      CL =  1.8680
      Cm = -0.2250     CD =  0.02525   =>   CDf =  0.00703    CDp =  0.01822

 Side 1  free  transition at x/c =  0.3971   57
 Side 2  free  transition at x/c =  0.9963   72

  21   rms: 0.2076E+02   max: 0.5632E+03   C at   72  2   RLX: 0.003
       a =  7.000      CL =  1.8676
      Cm = -0.2249     CD =  0.02525   =>   CDf =  0.00703    CDp =  0.01822

 Side 1  free  transition at x/c =  0.3971   57
 Side 2  free  transition at x/c =  0.9918   72

  22   rms: 0.4299E+01   max: -.1165E+03   C at   72  2   RLX: 0.004
       a =  7.000      CL =  1.8670
      Cm = -0.2248     CD =  0.02525   =>   CDf =  0.00703    CDp =  0.01822

 Side 1  free  transition at x/c =  0.3971   57
 Side 2  free  transition at x/c =  0.9946   72

  23   rms: 0.1987E+02   max: -.5390E+03   C at   72  2   RLX: 0.001
       a =  7.000      CL =  1.8669
      Cm = -0.2247     CD =  0.02524   =>   CDf =  0.00703    CDp =  0.01821

 Side 1  free  transition at x/c =  0.3971   57
 Side 2  free  transition at x/c =  0.9963   72

  24   rms: 0.1956E+02   max: 0.5305E+03   C at   72  2   RLX: 0.003
       a =  7.000      CL =  1.8665
      Cm = -0.2246     CD =  0.02524   =>   CDf =  0.00703    CDp =  0.01821

 Side 1  free  transition at x/c =  0.3971   57
 Side 2  free  transition at x/c =  0.9919   72

  25   rms: 0.4400E+01   max: -.1193E+03   C at   72  2   RLX: 0.004
       a =  7.000      CL =  1.8659
      Cm = -0.2245     CD =  0.02523   =>   CDf =  0.00703    CDp =  0.01821
 VISCAL:  Convergence failed
 Calculating wake trajectory ...
 Calculating source influence matrix ...

 Solving BL system ...

 Side 1  free  transition at x/c =  0.3971   57
 Side 2  free  transition at x/c =  0.9946   72

   1   rms: 0.5462E+02   max: -.1482E+04   C at   72  2   RLX: 0.000
       a =  8.000      CL =  1.8653
      Cm = -0.2245     CD =  0.02523   =>   CDf =  0.00705    CDp =  0.01818

 Side 1  free  transition at x/c =  0.3971   57
 Side 2  free  transition at x/c =  0.9963   72

   2   rms: 0.4836E+02   max: 0.1312E+04   C at   72  2   RLX: 0.001
       a =  8.000      CL =  1.8649
      Cm = -0.2244     CD =  0.02523   =>   CDf =  0.00705    CDp =  0.01818

 Side 1  free  transition at x/c =  0.3971   57
 Side 2  free  transition at x/c =  0.9917   72

   3   rms: 0.1130E+02   max: -.3064E+03   C at   72  2   RLX: 0.002
       a =  8.000      CL =  1.8644
      Cm = -0.2242     CD =  0.02523   =>   CDf =  0.00705    CDp =  0.01818

 Side 1  free  transition at x/c =  0.3971   57
 Side 2  free  transition at x/c =  0.9944   72

   4   rms: 0.4182E+02   max: -.1134E+04   C at   72  2   RLX: 0.000
       a =  8.000      CL =  1.8643
      Cm = -0.2242     CD =  0.02523   =>   CDf =  0.00705    CDp =  0.01818

 Side 1  free  transition at x/c =  0.3971   57
 Side 2  free  transition at x/c =  0.9962   72

   5   rms: 0.5907E+02   max: 0.1602E+04   C at   72  2   RLX: 0.001
       a =  8.000      CL =  1.8640
      Cm = -0.2241     CD =  0.02523   =>   CDf =  0.00705    CDp =  0.01818

 Side 1  free  transition at x/c =  0.3971   57
 Side 2  free  transition at x/c =  0.9913   72

   6   rms: 0.1043E+02   max: -.2828E+03   C at   72  2   RLX: 0.002
       a =  8.000      CL =  1.8635
      Cm = -0.2240     CD =  0.02523   =>   CDf =  0.00705    CDp =  0.01818

 Side 1  free  transition at x/c =  0.3971   57
 Side 2  free  transition at x/c =  0.9942   72

   7   rms: 0.3869E+02   max: -.1050E+04   C at   72  2   RLX: 0.000
       a =  8.000      CL =  1.8634
      Cm = -0.2239     CD =  0.02523   =>   CDf =  0.00705    CDp =  0.01818

 Side 1  free  transition at x/c =  0.3971   57
 Side 2  free  transition at x/c =  0.9960   72

   8   rms: 0.6880E+02   max: 0.1866E+04   C at   72  2   RLX: 0.001
       a =  8.000      CL =  1.8631
      Cm = -0.2239     CD =  0.02523   =>   CDf =  0.00705    CDp =  0.01818

 Side 1  free  transition at x/c =  0.3971   57
 Side 2  free  transition at x/c =  0.9911   72

   9   rms: 0.9985E+01   max: -.2706E+03   C at   72  2   RLX: 0.002
       a =  8.000      CL =  1.8626
      Cm = -0.2237     CD =  0.02523   =>   CDf =  0.00705    CDp =  0.01818

 Side 1  free  transition at x/c =  0.3971   57
 Side 2  free  transition at x/c =  0.9941   72

  10   rms: 0.3528E+02   max: -.9570E+03   C at   72  2   RLX: 0.001
       a =  8.000      CL =  1.8624
      Cm = -0.2237     CD =  0.02522   =>   CDf =  0.00705    CDp =  0.01817

 Side 1  free  transition at x/c =  0.3971   57
 Side 2  free  transition at x/c =  0.9959   72

  11   rms: 0.7511E+02   max: 0.2038E+04   C at   72  2   RLX: 0.001
       a =  8.000      CL =  1.8622
      Cm = -0.2236     CD =  0.02522   =>   CDf =  0.00705    CDp =  0.01817

 Side 1  free  transition at x/c =  0.3970   57
 Side 2  free  transition at x/c =  0.9909   72

  12   rms: 0.9582E+01   max: -.2597E+03   C at   72  2   RLX: 0.002
       a =  8.000      CL =  1.8616
      Cm = -0.2234     CD =  0.02522   =>   CDf =  0.00705    CDp =  0.01817

 Side 1  free  transition at x/c =  0.3970   57
 Side 2  free  transition at x/c =  0.9940   72

  13   rms: 0.3389E+02   max: -.9194E+03   C at   72  2   RLX: 0.001
       a =  8.000      CL =  1.8615
      Cm = -0.2234     CD =  0.02522   =>   CDf =  0.00705    CDp =  0.01817

 Side 1  free  transition at x/c =  0.3970   57
 Side 2  free  transition at x/c =  0.9959   72

  14   rms: 0.7862E+02   max: 0.2133E+04   C at   72  2   RLX: 0.001
       a =  8.000      CL =  1.8612
      Cm = -0.2233     CD =  0.02522   =>   CDf =  0.00705    CDp =  0.01817

 Side 1  free  transition at x/c =  0.3970   57
 Side 2  free  transition at x/c =  0.9907   72

  15   rms: 0.9431E+01   max: -.2556E+03   C at   72  2   RLX: 0.002
       a =  8.000      CL =  1.8607
      Cm = -0.2232     CD =  0.02522   =>   CDf =  0.00705    CDp =  0.01817

 Side 1  free  transition at x/c =  0.3970   57
 Side 2  free  transition at x/c =  0.9939   72

  16   rms: 0.3279E+02   max: -.8896E+03   C at   72  2   RLX: 0.001
       a =  8.000      CL =  1.8605
      Cm = -0.2231     CD =  0.02522   =>   CDf =  0.00705    CDp =  0.01817

 Side 1  free  transition at x/c =  0.3970   57
 Side 2  free  transition at x/c =  0.9959   72

  17   rms: 0.7763E+02   max: 0.2106E+04   C at   72  2   RLX: 0.001
       a =  8.000      CL =  1.8603
      Cm = -0.2231     CD =  0.02522   =>   CDf =  0.00705    CDp =  0.01817

 Side 1  free  transition at x/c =  0.3970   57
 Side 2  free  transition at x/c =  0.9905   72

  18   rms: 0.9300E+01   max: -.2520E+03   C at   72  2   RLX: 0.002
       a =  8.000      CL =  1.8597
      Cm = -0.2229     CD =  0.02522   =>   CDf =  0.00705    CDp =  0.01817

 Side 1  free  transition at x/c =  0.3970   57
 Side 2  free  transition at x/c =  0.9938   72

  19   rms: 0.3287E+02   max: -.8916E+03   C at   72  2   RLX: 0.001
       a =  8.000      CL =  1.8596
      Cm = -0.2229     CD =  0.02521   =>   CDf =  0.00705    CDp =  0.01817

 Side 1  free  transition at x/c =  0.3970   57
 Side 2  free  transition at x/c =  0.9958   72

  20   rms: 0.7847E+02   max: 0.2129E+04   C at   72  2   RLX: 0.001
       a =  8.000      CL =  1.8593
      Cm = -0.2228     CD =  0.02521   =>   CDf =  0.00705    CDp =  0.01817

 Side 1  free  transition at x/c =  0.3970   57
 Side 2  free  transition at x/c =  0.9904   72

  21   rms: 0.9256E+01   max: -.2509E+03   C at   72  2   RLX: 0.002
       a =  8.000      CL =  1.8588
      Cm = -0.2226     CD =  0.02521   =>   CDf =  0.00705    CDp =  0.01817

 Side 1  free  transition at x/c =  0.3970   57
 Side 2  free  transition at x/c =  0.9938   72

  22   rms: 0.3304E+02   max: -.8964E+03   C at   72  2   RLX: 0.001
       a =  8.000      CL =  1.8586
      Cm = -0.2226     CD =  0.02521   =>   CDf =  0.00705    CDp =  0.01816

 Side 1  free  transition at x/c =  0.3969   57
 Side 2  free  transition at x/c =  0.9958   72

  23   rms: 0.7861E+02   max: 0.2133E+04   C at   72  2   RLX: 0.001
       a =  8.000      CL =  1.8584
      Cm = -0.2225     CD =  0.02521   =>   CDf =  0.00705    CDp =  0.01816

 Side 1  free  transition at x/c =  0.3969   57
 Side 2  free  transition at x/c =  0.9902   72

  24   rms: 0.9091E+01   max: -.2464E+03   C at   72  2   RLX: 0.002
       a =  8.000      CL =  1.8578
      Cm = -0.2224     CD =  0.02521   =>   CDf =  0.00705    CDp =  0.01816

 Side 1  free  transition at x/c =  0.3969   57
 Side 2  free  transition at x/c =  0.9937   72

  25   rms: 0.3232E+02   max: -.8767E+03   C at   72  2   RLX: 0.001
       a =  8.000      CL =  1.8576
      Cm = -0.2223     CD =  0.02521   =>   CDf =  0.00705    CDp =  0.01816
 VISCAL:  Convergence failed
 Calculating wake trajectory ...
 Calculating source influence matrix ...

 Solving BL system ...

 Side 1  free  transition at x/c =  0.3969   57
 Side 2  free  transition at x/c =  0.9958   72

   1   rms: 0.1253E+03   max: 0.3399E+04   C at   72  2   RLX: 0.000
       a =  9.000      CL =  1.8564
      Cm = -0.2223     CD =  0.02521   =>   CDf =  0.00707    CDp =  0.01814

 Side 1  free  transition at x/c =  0.3969   57
 Side 2  free  transition at x/c =  0.9901   72

   2   rms: 0.1478E+02   max: -.4004E+03   C at   72  2   RLX: 0.001
       a =  9.000      CL =  1.8558
      Cm = -0.2221     CD =  0.02521   =>   CDf =  0.00706    CDp =  0.01814

 Side 1  free  transition at x/c =  0.3969   57
 Side 2  free  transition at x/c =  0.9936   72

   3   rms: 0.5190E+02   max: -.1408E+04   C at   72  2   RLX: 0.000
       a =  9.000      CL =  1.8556
      Cm = -0.2220     CD =  0.02521   =>   CDf =  0.00707    CDp =  0.01814

 Side 1  free  transition at x/c =  0.3969   57
 Side 2  free  transition at x/c =  0.9958   72

   4   rms: 0.1269E+03   max: 0.3443E+04   C at   72  2   RLX: 0.000
       a =  9.000      CL =  1.8554
      Cm = -0.2220     CD =  0.02521   =>   CDf =  0.00707    CDp =  0.01814

 Side 1  free  transition at x/c =  0.3969   57
 Side 2  free  transition at x/c =  0.9899   72

   5   rms: 0.1449E+02   max: -.3926E+03   C at   72  2   RLX: 0.001
       a =  9.000      CL =  1.8549
      Cm = -0.2218     CD =  0.02521   =>   CDf =  0.00706    CDp =  0.01814

 Side 1  free  transition at x/c =  0.3968   57
 Side 2  free  transition at x/c =  0.9935   72

   6   rms: 0.5210E+02   max: -.1413E+04   C at   72  2   RLX: 0.000
       a =  9.000      CL =  1.8547
      Cm = -0.2218     CD =  0.02520   =>   CDf =  0.00707    CDp =  0.01814

 Side 1  free  transition at x/c =  0.3968   57
 Side 2  free  transition at x/c =  0.9958   72

   7   rms: 0.1233E+03   max: 0.3344E+04   C at   72  2   RLX: 0.000
       a =  9.000      CL =  1.8545
      Cm = -0.2217     CD =  0.02521   =>   CDf =  0.00707    CDp =  0.01814

 Side 1  free  transition at x/c =  0.3968   57
 Side 2  free  transition at x/c =  0.9898   72

   8   rms: 0.1440E+02   max: -.3904E+03   C at   72  2   RLX: 0.001
       a =  9.000      CL =  1.8539
      Cm = -0.2215     CD =  0.02520   =>   CDf =  0.00706    CDp =  0.01814

 Side 1  free  transition at x/c =  0.3968   57
 Side 2  free  transition at x/c =  0.9935   72

   9   rms: 0.5259E+02   max: -.1427E+04   C at   72  2   RLX: 0.000
       a =  9.000      CL =  1.8538
      Cm = -0.2215     CD =  0.02520   =>   CDf =  0.00707    CDp =  0.01814

 Side 1  free  transition at x/c =  0.3968   57
 Side 2  free  transition at x/c =  0.9957   72

  10   rms: 0.1189E+03   max: 0.3226E+04   C at   72  2   RLX: 0.000
       a =  9.000      CL =  1.8535
      Cm = -0.2214     CD =  0.02520   =>   CDf =  0.00706    CDp =  0.01814

 Side 1  free  transition at x/c =  0.3968   57
 Side 2  free  transition at x/c =  0.9896   72

  11   rms: 0.1440E+02   max: -.3902E+03   C at   72  2   RLX: 0.001
       a =  9.000      CL =  1.8530
      Cm = -0.2212     CD =  0.02520   =>   CDf =  0.00706    CDp =  0.01814

 Side 1  free  transition at x/c =  0.3968   57
 Side 2  free  transition at x/c =  0.9934   72

  12   rms: 0.5174E+02   max: -.1404E+04   C at   72  2   RLX: 0.000
       a =  9.000      CL =  1.8528
      Cm = -0.2212     CD =  0.02520   =>   CDf =  0.00706    CDp =  0.01814

 Side 1  free  transition at x/c =  0.3967   57
 Side 2  free  transition at x/c =  0.9957   72

  13   rms: 0.1188E+03   max: 0.3223E+04   C at   72  2   RLX: 0.000
       a =  9.000      CL =  1.8526
      Cm = -0.2211     CD =  0.02520   =>   CDf =  0.00706    CDp =  0.01814

 Side 1  free  transition at x/c =  0.3967   57
 Side 2  free  transition at x/c =  0.9895   72

  14   rms: 0.1428E+02   max: -.3869E+03   C at   72  2   RLX: 0.001
       a =  9.000      CL =  1.8520
      Cm = -0.2210     CD =  0.02520   =>   CDf =  0.00706    CDp =  0.01814

 Side 1  free  transition at x/c =  0.3967   57
 Side 2  free  transition at x/c =  0.9934   72

  15   rms: 0.5348E+02   max: -.1451E+04   C at   72  2   RLX: 0.000
       a =  9.000      CL =  1.8519
      Cm = -0.2209     CD =  0.02520   =>   CDf =  0.00706    CDp =  0.01814

 Side 1  free  transition at x/c =  0.3967   57
 Side 2  free  transition at x/c =  0.9957   72

  16   rms: 0.1150E+03   max: 0.3121E+04   C at   72  2   RLX: 0.000
       a =  9.000      CL =  1.8516
      Cm = -0.2208     CD =  0.02520   =>   CDf =  0.00706    CDp =  0.01814

 Side 1  free  transition at x/c =  0.3967   57
 Side 2  free  transition at x/c =  0.9893   72

  17   rms: 0.1417E+02   max: -.3841E+03   C at   72  2   RLX: 0.001
       a =  9.000      CL =  1.8511
      Cm = -0.2207     CD =  0.02520   =>   CDf =  0.00706    CDp =  0.01814

 Side 1  free  transition at x/c =  0.3967   57
 Side 2  free  transition at x/c =  0.9933   72

  18   rms: 0.5305E+02   max: -.1439E+04   C at   72  2   RLX: 0.000
       a =  9.000      CL =  1.8509
      Cm = -0.2206     CD =  0.02520   =>   CDf =  0.00706    CDp =  0.01813

 Side 1  free  transition at x/c =  0.3967   57
 Side 2  free  transition at x/c =  0.9957   72

  19   rms: 0.1120E+03   max: 0.3038E+04   C at   72  2   RLX: 0.000
       a =  9.000      CL =  1.8507
      Cm = -0.2206     CD =  0.02520   =>   CDf =  0.00706    CDp =  0.01813

 Side 1  free  transition at x/c =  0.3967   57
 Side 2  free  transition at x/c =  0.9891   71

  20   rms: 0.7278E+02   max: -.1409E+04   C at   71  2   RLX: 0.000
       a =  9.000      CL =  1.8505
      Cm = -0.2205     CD =  0.02520   =>   CDf =  0.00706    CDp =  0.01814

 Side 1  free  transition at x/c =  0.3966   57
 Side 2  free  transition at x/c =  0.9968   72

  21   rms: 0.4737E+02   max: 0.1285E+04   C at   72  2   RLX: 0.001
       a =  9.000      CL =  1.8500
      Cm = -0.2204     CD =  0.02520   =>   CDf =  0.00706    CDp =  0.01813

 Side 1  free  transition at x/c =  0.3966   57
 Side 2  free  transition at x/c =  0.9906   72

  22   rms: 0.2010E+02   max: -.5451E+03   C at   72  2   RLX: 0.001
       a =  9.000      CL =  1.8496
      Cm = -0.2202     CD =  0.02520   =>   CDf =  0.00706    CDp =  0.01813

 Side 1  free  transition at x/c =  0.3966   57
 Side 2  free  transition at x/c =  0.9940   72

  23   rms: 0.1090E+03   max: -.2957E+04   C at   72  2   RLX: 0.000
       a =  9.000      CL =  1.8495
      Cm = -0.2202     CD =  0.02519   =>   CDf =  0.00706    CDp =  0.01813

 Side 1  free  transition at x/c =  0.3966   57
 Side 2  free  transition at x/c =  0.9963   72

  24   rms: 0.6223E+02   max: 0.1688E+04   C at   72  2   RLX: 0.001
       a =  9.000      CL =  1.8491
      Cm = -0.2201     CD =  0.02519   =>   CDf =  0.00706    CDp =  0.01813

 Side 1  free  transition at x/c =  0.3966   57
 Side 2  free  transition at x/c =  0.9898   72

  25   rms: 0.1712E+02   max: -.4642E+03   C at   72  2   RLX: 0.001
       a =  9.000      CL =  1.8486
      Cm = -0.2199     CD =  0.02519   =>   CDf =  0.00706    CDp =  0.01813
 VISCAL:  Convergence failed
 Calculating wake trajectory ...
 Calculating source influence matrix ...

 Solving BL system ...

 Side 1  free  transition at x/c =  0.3966   57
 Side 2  free  transition at x/c =  0.9936   72

   1   rms: 0.1031E+03   max: -.2798E+04   C at   72  2   RLX: 0.000
       a = 10.000      CL =  1.8469
      Cm = -0.2199     CD =  0.02519   =>   CDf =  0.00708    CDp =  0.01811

 Side 1  free  transition at x/c =  0.3965   57
 Side 2  free  transition at x/c =  0.9960   72

   2   rms: 0.1061E+03   max: 0.2878E+04   C at   72  2   RLX: 0.001
       a = 10.000      CL =  1.8466
      Cm = -0.2198     CD =  0.02519   =>   CDf =  0.00708    CDp =  0.01811

 Side 1  free  transition at x/c =  0.3965   57
 Side 2  free  transition at x/c =  0.9892   71

   3   rms: 0.1021E+03   max: -.1977E+04   C at   71  2   RLX: 0.000
       a = 10.000      CL =  1.8465
      Cm = -0.2198     CD =  0.02520   =>   CDf =  0.00708    CDp =  0.01812

 Side 1  free  transition at x/c =  0.3965   57
 Side 2  free  transition at x/c =  0.9965   72

   4   rms: 0.7554E+02   max: 0.2049E+04   C at   72  2   RLX: 0.001
       a = 10.000      CL =  1.8460
      Cm = -0.2196     CD =  0.02519   =>   CDf =  0.00708    CDp =  0.01811

 Side 1  free  transition at x/c =  0.3965   57
 Side 2  free  transition at x/c =  0.9898   72

   5   rms: 0.2483E+02   max: -.6731E+03   C at   72  2   RLX: 0.001
       a = 10.000      CL =  1.8456
      Cm = -0.2195     CD =  0.02519   =>   CDf =  0.00708    CDp =  0.01811

 Side 1  free  transition at x/c =  0.3965   57
 Side 2  free  transition at x/c =  0.9936   72

   6   rms: 0.1200E+03   max: -.3257E+04   C at   72  2   RLX: 0.000
       a = 10.000      CL =  1.8455
      Cm = -0.2195     CD =  0.02519   =>   CDf =  0.00708    CDp =  0.01811

 Side 1  free  transition at x/c =  0.3965   57
 Side 2  free  transition at x/c =  0.9961   72

   7   rms: 0.9504E+02   max: 0.2578E+04   C at   72  2   RLX: 0.001
       a = 10.000      CL =  1.8451
      Cm = -0.2194     CD =  0.02519   =>   CDf =  0.00708    CDp =  0.01811

 Side 1  free  transition at x/c =  0.3965   57
 Side 2  free  transition at x/c =  0.9890   71

   8   rms: 0.1031E+03   max: -.1997E+04   C at   71  2   RLX: 0.000
       a = 10.000      CL =  1.8450
      Cm = -0.2193     CD =  0.02519   =>   CDf =  0.00708    CDp =  0.01812

 Side 1  free  transition at x/c =  0.3964   57
 Side 2  free  transition at x/c =  0.9962   72

   9   rms: 0.9405E+02   max: 0.2551E+04   C at   72  2   RLX: 0.001
       a = 10.000      CL =  1.8446
      Cm = -0.2192     CD =  0.02519   =>   CDf =  0.00708    CDp =  0.01811

 Side 1  free  transition at x/c =  0.3964   57
 Side 2  free  transition at x/c =  0.9890   71

  10   rms: 0.1035E+03   max: -.2003E+04   C at   71  2   RLX: 0.000
       a = 10.000      CL =  1.8445
      Cm = -0.2192     CD =  0.02519   =>   CDf =  0.00708    CDp =  0.01811

 Side 1  free  transition at x/c =  0.3964   57
 Side 2  free  transition at x/c =  0.9960   72

  11   rms: 0.1069E+03   max: 0.2901E+04   C at   72  2   RLX: 0.001
       a = 10.000      CL =  1.8441
      Cm = -0.2191     CD =  0.02519   =>   CDf =  0.00708    CDp =  0.01811

 Side 1  free  transition at x/c =  0.3964   57
 Side 2  free  transition at x/c =  0.9886   71

  12   rms: 0.1043E+03   max: -.2019E+04   C at   71  2   RLX: 0.000
       a = 10.000      CL =  1.8440
      Cm = -0.2190     CD =  0.02519   =>   CDf =  0.00708    CDp =  0.01811

 Side 1  free  transition at x/c =  0.3964   57
 Side 2  free  transition at x/c =  0.9955   72

  13   rms: 0.1567E+03   max: 0.4251E+04   C at   72  2   RLX: 0.000
       a = 10.000      CL =  1.8438
      Cm = -0.2190     CD =  0.02519   =>   CDf =  0.00708    CDp =  0.01811

 Side 1  free  transition at x/c =  0.3964   57
 Side 2  free  transition at x/c =  0.9878   71

  14   rms: 0.1058E+03   max: -.2049E+04   C at   71  2   RLX: 0.000
       a = 10.000      CL =  1.8436
      Cm = -0.2189     CD =  0.02519   =>   CDf =  0.00708    CDp =  0.01811

 Side 1  free  transition at x/c =  0.3964   57
 Side 2  free  transition at x/c =  0.9947   72

  15   rms: 0.1628E+04   max: 0.4416E+05   C at   72  2   RLX: 0.000
       a = 10.000      CL =  1.8436
      Cm = -0.2189     CD =  0.02519   =>   CDf =  0.00708    CDp =  0.01811

 Side 1  free  transition at x/c =  0.3964   57
 Side 2  free  transition at x/c =  0.9864   71

  16   rms: 0.1079E+03   max: -.2090E+04   C at   71  2   RLX: 0.000
       a = 10.000      CL =  1.8435
      Cm = -0.2189     CD =  0.02519   =>   CDf =  0.00708    CDp =  0.01811

 Side 1  free  transition at x/c =  0.3964   57
 Side 2  free  transition at x/c =  0.9934   72

  17   rms: 0.1180E+03   max: -.3201E+04   C at   72  2   RLX: 0.000
       a = 10.000      CL =  1.8434
      Cm = -0.2188     CD =  0.02519   =>   CDf =  0.00708    CDp =  0.01811

 Side 1  free  transition at x/c =  0.3964   57
 Side 2  free  transition at x/c =  0.9961   72

  18   rms: 0.9744E+02   max: 0.2643E+04   C at   72  2   RLX: 0.001
       a = 10.000      CL =  1.8430
      Cm = -0.2187     CD =  0.02519   =>   CDf =  0.00708    CDp =  0.01811

 Side 1  free  transition at x/c =  0.3963   57
 Side 2  free  transition at x/c =  0.9884   71

  19   rms: 0.1050E+03   max: -.2033E+04   C at   71  2   RLX: 0.000
       a = 10.000      CL =  1.8429
      Cm = -0.2187     CD =  0.02519   =>   CDf =  0.00708    CDp =  0.01811

 Side 1  free  transition at x/c =  0.3963   57
 Side 2  free  transition at x/c =  0.9952   72

  20   rms: 0.2456E+03   max: 0.6662E+04   C at   72  2   RLX: 0.000
       a = 10.000      CL =  1.8427
      Cm = -0.2187     CD =  0.02519   =>   CDf =  0.00708    CDp =  0.01811

 Side 1  free  transition at x/c =  0.3963   57
 Side 2  free  transition at x/c =  0.9870   71

  21   rms: 0.1078E+03   max: -.2088E+04   C at   71  2   RLX: 0.000
       a = 10.000      CL =  1.8426
      Cm = -0.2186     CD =  0.02519   =>   CDf =  0.00708    CDp =  0.01811

 Side 1  free  transition at x/c =  0.3963   57
 Side 2  free  transition at x/c =  0.9937   72

  22   rms: 0.1753E+03   max: -.4756E+04   C at   72  2   RLX: 0.000
       a = 10.000      CL =  1.8426
      Cm = -0.2186     CD =  0.02519   =>   CDf =  0.00708    CDp =  0.01811

 Side 1  free  transition at x/c =  0.3963   57
 Side 2  free  transition at x/c =  0.9964   72

  23   rms: 0.7960E+02   max: 0.2159E+04   C at   72  2   RLX: 0.001
       a = 10.000      CL =  1.8421
      Cm = -0.2185     CD =  0.02519   =>   CDf =  0.00708    CDp =  0.01811

 Side 1  free  transition at x/c =  0.3963   57
 Side 2  free  transition at x/c =  0.9886   71

  24   rms: 0.1050E+03   max: -.2034E+04   C at   71  2   RLX: 0.000
       a = 10.000      CL =  1.8420
      Cm = -0.2184     CD =  0.02519   =>   CDf =  0.00708    CDp =  0.01811

 Side 1  free  transition at x/c =  0.3963   57
 Side 2  free  transition at x/c =  0.9952   72

  25   rms: 0.2239E+03   max: 0.6074E+04   C at   72  2   RLX: 0.000
       a = 10.000      CL =  1.8418
      Cm = -0.2184     CD =  0.02519   =>   CDf =  0.00708    CDp =  0.01811
 VISCAL:  Convergence failed

 Sequence halted since previous  4 points did not converge
 Last-converged  alpha =   6.000    CL =   1.81072

.OPERva   c>  
 XFOIL   c>  
0.1
resp: 
 ===================================================
  XFOIL Version 6.97
  Copyright (C) 2000   Mark Drela, Harold Youngren

  This software comes with ABSOLUTELY NO WARRANTY,
    subject to the GNU General Public License.

  Caveat computor
 ===================================================

 File  xfoil.def  not found

   QUIT    Exit program

  .OPER    Direct operating point(s)
  .MDES    Complex mapping design routine
  .QDES    Surface speed design routine
  .GDES    Geometry design routine

   SAVE f  Write airfoil to labeled coordinate file
   PSAV f  Write airfoil to plain coordinate file
   ISAV f  Write airfoil to ISES coordinate file
   MSAV f  Write airfoil to MSES coordinate file
   REVE    Reverse written-airfoil node ordering
   DELI i  Change written-airfoil file delimiters

   LOAD f  Read buffer airfoil from coordinate file
   NACA i  Set NACA 4,5-digit airfoil and buffer airfoil
   INTE    Set buffer airfoil by interpolating two airfoils
   NORM    Buffer airfoil normalization toggle
   HALF    Halve the number of points in buffer airfoil
   XYCM rr Change CM reference location, currently  0.25000 0.00000

   BEND    Display structural properties of current airfoil

   PCOP    Set current-airfoil panel nodes directly from buffer airfoil points
   PANE    Set current-airfoil panel nodes ( 160 ) based on curvature
  .PPAR    Show/change paneling

  .PLOP    Plotting options

   WDEF f  Write  current-settings file
   RDEF f  Reread current-settings file
   NAME s  Specify new airfoil name
   NINC    Increment name version number

   Z       Zoom    | (available in all menus)
   U       Unzoom  | 

 XFOIL   c>   ...............................................

  G raphics-enable flag:        T
  S ize of plot object          10.00"
  A spect ratio of plot object   0.5500
  P age dimensions              11.00 x  8.50"
  M argins from page edges       0.00",  0.00"
  F ont size (relative)          0.0150
  W indow/screen size fraction   0.8000
  B lowup input method:        Cursor    
  O rientation of plot:        Landscape 
  C olor PostScript output?     F

      Option, Value   (or <Return>)    c>   ...............................................

  G raphics-enable flag:        F
  S ize of plot object          10.00"
  A spect ratio of plot object   0.5500
  P age dimensions              11.00 x  8.50"
  M argins from page edges       0.00",  0.00"
  F ont size (relative)          0.0150
  W indow/screen size fraction   0.8000
  B lowup input method:        Cursor    
  O rientation of plot:        Landscape 
  C olor PostScript output?     F

      Option, Value   (or <Return>)    c>  
 XFOIL   c>  
 Labeled airfoil file.  Name:  000249                                          

 Number of input coordinate points: 200
 Clockwise ordering
 Max thickness =     0.138554  at x =   0.158
 Max camber    =     0.116220  at x =   0.406

  LE  x,y  =  -0.00005   0.00183  |   Chord =   0.99992
  TE  x,y  =   0.99988   0.00006  |

 Current airfoil nodes set from buffer airfoil nodes ( 200 )

 XFOIL   c>  
 You are working with the buffer airfoil

.GDES   c>  
  i       x        y      angle
   2   0.9990   0.0005    0.027
   3   0.9978   0.0011    0.038
   4   0.9961   0.0019    0.033
   5   0.9938   0.0030    0.056
   6   0.9911   0.0043    0.061
   7   0.9880   0.0058    0.085
   8   0.9843   0.0076    0.093
   9   0.9801   0.0095    0.111
  10   0.9755   0.0117    0.106
  11   0.9704   0.0141    0.127
  12   0.9649   0.0167    0.152
  13   0.9589   0.0195    0.144
  14   0.9524   0.0225    0.181
  15   0.9455   0.0257    0.178
  16   0.9382   0.0291    0.194
  17   0.9304   0.0326    0.220
  18   0.9222   0.0362    0.229
  19   0.9135   0.0400    0.241
  20   0.9045   0.0440    0.260
  21   0.8951   0.0481    0.275
  22   0.8853   0.0523    0.299
  23   0.8751   0.0565    0.304
  24   0.8645   0.0609    0.330
  25   0.8536   0.0654    0.343
  26   0.8423   0.0699    0.360
  27   0.8307   0.0744    0.379
  28   0.8187   0.0790    0.395
  29   0.8065   0.0836    0.409
  30   0.7939   0.0883    0.433
  31   0.7810   0.0929    0.450
  32   0.7679   0.0975    0.456
  33   0.7545   0.1021    0.488
  34   0.7409   0.1067    0.493
  35   0.7270   0.1111    0.517
  36   0.7129   0.1156    0.527
  37   0.6986   0.1199    0.546
  38   0.6841   0.1242    0.562
  39   0.6694   0.1283    0.578
  40   0.6545   0.1324    0.588
  41   0.6395   0.1363    0.608
  42   0.6243   0.1401    0.618
  43   0.6091   0.1437    0.639
  44   0.5937   0.1472    0.643
  45   0.5782   0.1505    0.665
  46   0.5627   0.1536    0.674
  47   0.5471   0.1566    0.693
  48   0.5314   0.1594    0.697
  49   0.5157   0.1620    0.721
  50   0.5000   0.1644    0.729
  51   0.4843   0.1666    0.746
  52   0.4686   0.1685    0.758
  53   0.4529   0.1703    0.780
  54   0.4373   0.1718    0.788
  55   0.4218   0.1732    0.812
  56   0.4063   0.1743    0.829
  57   0.3909   0.1751    0.846
  58   0.3757   0.1758    0.872
  59   0.3605   0.1761    0.894
  60   0.3455   0.1763    0.915
  61   0.3306   0.1762    0.943
  62   0.3159   0.1759    0.974
  63   0.3014   0.1753    1.009
  64   0.2871   0.1745    1.035
  65   0.2730   0.1735    1.081
  66   0.2591   0.1722    1.111
  67   0.2455   0.1706    1.165
  68   0.2321   0.1688    1.206
  69   0.2190   0.1668    1.254
  70   0.2061   0.1645    1.315
  71   0.1935   0.1620    1.368
  72   0.1813   0.1592    1.430
  73   0.1693   0.1562    1.498
  74   0.1577   0.1529    1.566
  75   0.1464   0.1494    1.649
  76   0.1355   0.1456    1.718
  77   0.1249   0.1417    1.806
  78   0.1147   0.1375    1.896
  79   0.1049   0.1330    1.994
  80   0.0955   0.1283    2.081
  81   0.0865   0.1235    2.187
  82   0.0778   0.1184    2.289
  83   0.0696   0.1131    2.407
  84   0.0618   0.1075    2.513
  85   0.0545   0.1018    2.622
  86   0.0476   0.0960    2.750
  87   0.0411   0.0899    2.854
  88   0.0351   0.0837    2.980
  89   0.0296   0.0773    3.091
  90   0.0245   0.0707    3.200
  91   0.0199   0.0641    3.315
  92   0.0157   0.0573    3.425
  93   0.0120   0.0504    3.501
  94   0.0089   0.0433    3.611
  95   0.0062   0.0363    3.676
  96   0.0039   0.0291    3.740
  97   0.0022   0.0219    3.801
  98   0.0010   0.0146    3.832
  99   0.0002   0.0073    3.857
 100   0.0000   0.0000    9.202
 101   0.0002  -0.0019   14.002
 102   0.0010  -0.0038   12.651
 103   0.0022  -0.0057   10.980
 104   0.0039  -0.0074    9.335
 105   0.0062  -0.0090    7.858
 106   0.0089  -0.0104    6.703
 107   0.0120  -0.0117    5.684
 108   0.0157  -0.0127    4.902
 109   0.0199  -0.0135    4.218
 110   0.0245  -0.0140    3.676
 111   0.0296  -0.0142    3.177
 112   0.0351  -0.0142    2.783
 113   0.0411  -0.0138    2.409
 114   0.0476  -0.0132    2.091
 115   0.0545  -0.0123    1.801
 116   0.0618  -0.0110    1.542
 117   0.0696  -0.0095    1.297
 118   0.0778  -0.0077    1.089
 119   0.0865  -0.0056    0.886
 120   0.0955  -0.0033    0.700
 121   0.1049  -0.0008    0.536
 122   0.1147   0.0020    0.369
 123   0.1249   0.0049    0.225
 124   0.1355   0.0079    0.091
 125   0.1464   0.0111   -0.036
 126   0.1577   0.0144   -0.158
 127   0.1693   0.0178   -0.266
 128   0.1813   0.0212   -0.364
 129   0.1935   0.0245   -0.458
 130   0.2061   0.0279   -0.537
 131   0.2190   0.0312   -0.618
 132   0.2321   0.0345   -0.679
 133   0.2455   0.0376   -0.738
 134   0.2591   0.0406   -0.787
 135   0.2730   0.0434   -0.820
 136   0.2871   0.0461   -0.857
 137   0.3014   0.0487   -0.873
 138   0.3159   0.0510   -0.892
 139   0.3306   0.0531   -0.890
 140   0.3455   0.0550   -0.893
 141   0.3605   0.0567   -0.881
 142   0.3757   0.0581   -0.863
 143   0.3909   0.0594   -0.840
 144   0.4063   0.0604   -0.812
 145   0.4218   0.0612   -0.779
 146   0.4373   0.0618   -0.742
 147   0.4529   0.0622   -0.699
 148   0.4686   0.0625   -0.666
 149   0.4843   0.0625   -0.617
 150   0.5000   0.0624   -0.573
 151   0.5157   0.0621   -0.534
 152   0.5314   0.0616   -0.486
 153   0.5471   0.0611   -0.453
 154   0.5627   0.0604   -0.407
 155   0.5782   0.0596   -0.376
 156   0.5937   0.0587   -0.339
 157   0.6091   0.0577   -0.310
 158   0.6243   0.0566   -0.288
 159   0.6395   0.0555   -0.263
 160   0.6545   0.0543   -0.249
 161   0.6694   0.0531   -0.228
 162   0.6841   0.0518   -0.227
 163   0.6986   0.0505   -0.218
 164   0.7129   0.0491   -0.214
 165   0.7270   0.0477   -0.225
 166   0.7409   0.0463   -0.222
 167   0.7545   0.0448   -0.241
 168   0.7679   0.0433   -0.247
 169   0.7810   0.0418   -0.260
 170   0.7939   0.0403   -0.287
 171   0.8065   0.0387   -0.299
 172   0.8187   0.0371   -0.320
 173   0.8307   0.0355   -0.341
 174   0.8423   0.0338   -0.364
 175   0.8536   0.0321   -0.378
 176   0.8645   0.0304   -0.406
 177   0.8751   0.0287   -0.423
 178   0.8853   0.0270   -0.434
 179   0.8951   0.0252   -0.457
 180   0.9045   0.0235   -0.460
 181   0.9135   0.0217   -0.476
 182   0.9222   0.0199   -0.474
 183   0.9304   0.0182   -0.479
 184   0.9382   0.0165   -0.478
 185   0.9455   0.0148   -0.470
 186   0.9524   0.0132   -0.466
 187   0.9589   0.0116   -0.445
 188   0.9649   0.0100   -0.436
 189   0.9704   0.0086   -0.411
 190   0.9755   0.0072   -0.381
 191   0.9801   0.0059   -0.356
 192   0.9843   0.0047   -0.322
 193   0.9880   0.0037   -0.291
 194   0.9911   0.0027   -0.273
 195   0.9938   0.0019   -0.209
 196   0.9961   0.0012   -0.163
 197   0.9978   0.0007   -0.119
 198   0.9990   0.0003   -0.138
 199   0.9998   0.0001    0.093

 Maximum panel corner angle = 14.002   at  i,x,y  = 101   0.0002  -0.0019

 Enter corner angle criterion for refinement (deg):   7.001
 Enter type of spline parameter (1=uniform, 2=arclength):   1
 Enter refinement x limits:  -0.10000   1.10000
 Number of points added:           12
 Max thickness =     0.138471  at x =   0.158
 Max camber    =     0.117424  at x =   0.406

 Maximum panel corner angle = 12.747   at  i,x,y  = 103   0.0001  -0.0016

.GDES   c>  
 Buffer airfoil is not identical to current airfoil

 XFOIL   c>  
 Blunt trailing edge.  Gap =  0.00027

 Paneling parameters used...
   Number of panel nodes       160
   Panel bunching parameter    1.000
   TE/LE panel density ratio   0.150
   Refined-area/LE panel density ratio    0.200
   Top    side refined area x/c limits  1.000 1.000
   Bottom side refined area x/c limits  1.000 1.000

 XFOIL   c>  
.OPERi   c>   Current iteration limit:          20

Enter new iteration limit   i>  
Enter new iteration limit   i>  
Enter new iteration limit   i>  
.OPERi   c>  
 M  =    0.0000
 Re =  0.3000E+06

.OPERv   c>  
 Sonic Cp =    -66.86      Sonic Q/Qinf =     9.138


.OPERv   c>  
 Polar  1 newly created for accumulation
 Airfoil archived with polar: 000249                                          

Enter  polar save filename  OR  <return> for no file   s>  
 New polar save file available

Enter  polar dump filename  OR  <return> for no file   s>  
 Polar dump file will NOT be written

 Polar accumulation enabled

.OPERva   c>   Calculating unit vorticity distributions ...
 Calculating wake trajectory ...
 Calculating source influence matrix ...

 Solving BL system ...

 Initializing BL ...
    side            1  ...
 MRCHUE: Inverse mode at  52     Hk =   4.451
 MRCHUE: Inverse mode at  53     Hk =   5.275
 MRCHUE: Inverse mode at  54     Hk =   6.083
 MRCHUE: Inverse mode at  55     Hk =   6.879
 MRCHUE: Inverse mode at  56     Hk =   7.667
 MRCHUE: Inverse mode at  57     Hk =   8.447
 MRCHUE: Inverse mode at  58     Hk =   4.630
 MRCHUE: Inverse mode at  59     Hk =   2.738
 MRCHUE: Inverse mode at  85     Hk =   2.500
 MRCHUE: Convergence failed at  86  side 1    Res =  0.7847E+01
    side            2  ...
 MRCHUE: Inverse mode at  24     Hk =   3.870
 MRCHUE: Inverse mode at  25     Hk =   4.476
 MRCHUE: Inverse mode at  26     Hk =   5.101
 MRCHUE: Inverse mode at  27     Hk =   5.755
 MRCHUE: Inverse mode at  28     Hk =   6.445
 MRCHUE: Inverse mode at  29     Hk =   7.177
 MRCHUE: Inverse mode at  30     Hk =   7.952
 MRCHUE: Inverse mode at  31     Hk =   8.763
 MRCHUE: Inverse mode at  32     Hk =   9.599
 MRCHUE: Inverse mode at  33     Hk =   7.478
 MRCHUE: Inverse mode at  34     Hk =   4.659
 MRCHUE: Inverse mode at  35     Hk =   3.004
 MRCHUE: Inverse mode at  36     Hk =   2.500

 MRCHDU: Convergence failed at  86  side 1    Res =  0.6934E+01
 Side 1  free  transition at x/c =  0.4779   58
 Side 2  free  transition at x/c =  0.1824   33

   1   rms: 0.4257E+00   max: 0.2308E+01   T at   33  2   RLX: 0.247
       a =  2.000      CL =  1.6296
      Cm = -0.2760     CD =  0.01026   =>   CDf =  0.00874    CDp =  0.00152

 Side 1  free  transition at x/c =  0.4860   58
 Side 2  free  transition at x/c =  0.1701   32

   2   rms: 0.1911E+00   max: 0.1208E+01   T at   32  2   RLX: 0.501
       a =  2.000      CL =  1.5679
      Cm = -0.2624     CD =  0.01424   =>   CDf =  0.00876    CDp =  0.00548

 Side 1  free  transition at x/c =  0.5089   58
 Side 2  free  transition at x/c =  0.1579   32

   3   rms: 0.1741E+00   max: 0.2045E+01   D at    2  2   RLX: 0.467
       a =  2.000      CL =  1.5435
      Cm = -0.2576     CD =  0.01418   =>   CDf =  0.00800    CDp =  0.00618

 Side 1  free  transition at x/c =  0.5200   59
 Side 2  free  transition at x/c =  0.1516   32

   4   rms: 0.9776E-01   max: -.4769E+00   D at   34  2
       a =  2.000      CL =  1.5008
      Cm = -0.2479     CD =  0.01627   =>   CDf =  0.00783    CDp =  0.00844

 Side 1  free  transition at x/c =  0.5369   60
 Side 2  free  transition at x/c =  0.1468   32

   5   rms: 0.4926E-01   max: -.2439E+00   D at   59  1
       a =  2.000      CL =  1.4986
      Cm = -0.2473     CD =  0.01667   =>   CDf =  0.00783    CDp =  0.00884

 Side 1  free  transition at x/c =  0.5437   60
 Side 2  free  transition at x/c =  0.1459   32

   6   rms: 0.1773E-01   max: -.9130E-01   D at   84  2
       a =  2.000      CL =  1.5093
      Cm = -0.2495     CD =  0.01698   =>   CDf =  0.00751    CDp =  0.00947

 Side 1  free  transition at x/c =  0.5404   60
 Side 2  free  transition at x/c =  0.1469   32

   7   rms: 0.1163E-02   max: 0.9968E-02   T at   32  2
       a =  2.000      CL =  1.5083
      Cm = -0.2493     CD =  0.01702   =>   CDf =  0.00757    CDp =  0.00945

 Side 1  free  transition at x/c =  0.5405   60
 Side 2  free  transition at x/c =  0.1467   32

   8   rms: 0.2183E-04   max: -.1204E-03   D at   34  2
       a =  2.000      CL =  1.5083
      Cm = -0.2493     CD =  0.01702   =>   CDf =  0.00757    CDp =  0.00945

 Point added to stored polar  1
 Point written to save file  000249M0.1.log                                  
 Dump file unspecified or not available
 Calculating wake trajectory ...
 Calculating source influence matrix ...

 Solving BL system ...

 Side 1  free  transition at x/c =  0.5405   60
 Side 2  free  transition at x/c =  0.1467   32

   1   rms: 0.1760E+00   max: -.1624E+01   T at   32  2   RLX: 0.308
       a =  3.000      CL =  1.5375
      Cm = -0.2484     CD =  0.01724   =>   CDf =  0.00759    CDp =  0.00966

 Side 1  free  transition at x/c =  0.5313   59
 Side 2  free  transition at x/c =  0.1540   32

   2   rms: 0.1528E+00   max: 0.1347E+01   D at    3  2   RLX: 0.453
       a =  3.000      CL =  1.5631
      Cm = -0.2466     CD =  0.01787   =>   CDf =  0.00739    CDp =  0.01048

 Side 1  free  transition at x/c =  0.5190   60
 Side 2  free  transition at x/c =  0.1642   32

   3   rms: 0.7163E-01   max: -.4576E+00   T at    2  1
       a =  3.000      CL =  1.6011
      Cm = -0.2461     CD =  0.01804   =>   CDf =  0.00773    CDp =  0.01031

 Side 1  free  transition at x/c =  0.5094   59
 Side 2  free  transition at x/c =  0.1730   32

   4   rms: 0.4162E-01   max: -.2429E+00   D at   32  2
       a =  3.000      CL =  1.5975
      Cm = -0.2453     CD =  0.01800   =>   CDf =  0.00775    CDp =  0.01025

 Side 1  free  transition at x/c =  0.5083   59
 Side 2  free  transition at x/c =  0.1742   32

   5   rms: 0.3087E-02   max: 0.3517E-01   D at   33  2
       a =  3.000      CL =  1.5980
      Cm = -0.2454     CD =  0.01800   =>   CDf =  0.00773    CDp =  0.01027

 Side 1  free  transition at x/c =  0.5082   59
 Side 2  free  transition at x/c =  0.1741   32

   6   rms: 0.8330E-04   max: 0.8271E-03   D at   33  2
       a =  3.000      CL =  1.5980
      Cm = -0.2454     CD =  0.01800   =>   CDf =  0.00773    CDp =  0.01027

 Point added to stored polar  1
 Point written to save file  000249M0.1.log                                  
 Dump file unspecified or not available
 Calculating wake trajectory ...
 Calculating source influence matrix ...

 Solving BL system ...

 Side 1  free  transition at x/c =  0.5082   59
 Side 2  free  transition at x/c =  0.1741   32

   1   rms: 0.1603E+00   max: -.1528E+01   T at   32  2   RLX: 0.327
       a =  4.000      CL =  1.6224
      Cm = -0.2433     CD =  0.01842   =>   CDf =  0.00751    CDp =  0.01091

 MRCHDU: Convergence failed at  32  side 2    Res =  0.6444E+01
 MRCHDU: Convergence failed at  33  side 2    Res =  0.8702E+02
 MRCHDU: Convergence failed at  34  side 2    Res =  0.8419E+01
 MRCHDU: Convergence failed at  35  side 2    Res =  0.1291E+02
 MRCHDU: Convergence failed at  36  side 2    Res =  0.2177E+02
 MRCHDU: Convergence failed at  37  side 2    Res =  0.3175E+02
 MRCHDU: Convergence failed at  38  side 2    Res =  0.4366E+02
 MRCHDU: Convergence failed at  39  side 2    Res =  0.5477E+02
 MRCHDU: Convergence failed at  40  side 2    Res =  0.6361E+02
 MRCHDU: Convergence failed at  41  side 2    Res =  0.6707E+02
 MRCHDU: Convergence failed at  42  side 2    Res =  0.7284E+02
 MRCHDU: Convergence failed at  43  side 2    Res =  0.7868E+02
 MRCHDU: Convergence failed at  44  side 2    Res =  0.8565E+02
 MRCHDU: Convergence failed at  45  side 2    Res =  0.9586E+02
 MRCHDU: Convergence failed at  46  side 2    Res =  0.1095E+03
 MRCHDU: Convergence failed at  47  side 2    Res =  0.1262E+03
 MRCHDU: Convergence failed at  48  side 2    Res =  0.1462E+03
 MRCHDU: Convergence failed at  49  side 2    Res =  0.1661E+03
 MRCHDU: Convergence failed at  50  side 2    Res =  0.1748E+03
 MRCHDU: Convergence failed at  51  side 2    Res =  0.1654E+03
 MRCHDU: Convergence failed at  52  side 2    Res =  0.1464E+03
 MRCHDU: Convergence failed at  53  side 2    Res =  0.1082E+03
 MRCHDU: Convergence failed at  54  side 2    Res =  0.7056E+02
 MRCHDU: Convergence failed at  55  side 2    Res =  0.4917E+02
 MRCHDU: Convergence failed at  56  side 2    Res =  0.3481E+02
 MRCHDU: Convergence failed at  57  side 2    Res =  0.2508E+02
 MRCHDU: Convergence failed at  58  side 2    Res =  0.1879E+02
 MRCHDU: Convergence failed at  59  side 2    Res =  0.1456E+02
 MRCHDU: Convergence failed at  60  side 2    Res =  0.1158E+02
 MRCHDU: Convergence failed at  61  side 2    Res =  0.9387E+01
 MRCHDU: Convergence failed at  62  side 2    Res =  0.7748E+01
 MRCHDU: Convergence failed at  63  side 2    Res =  0.6634E+01
 MRCHDU: Convergence failed at  64  side 2    Res =  0.5713E+01
 MRCHDU: Convergence failed at  65  side 2    Res =  0.4977E+01
 MRCHDU: Convergence failed at  66  side 2    Res =  0.3605E+01
 MRCHDU: Convergence failed at  67  side 2    Res =  0.3663E+01
 MRCHDU: Convergence failed at  68  side 2    Res =  0.3703E+01
 MRCHDU: Convergence failed at  69  side 2    Res =  0.3809E+01
 Side 1  free  transition at x/c =  0.4968   60
 Side 2  free  transition at x/c =  0.1863   32

   2   rms: 0.5412E+00   max: -.4259E+01   T at    2  1   RLX: 0.117
       a =  4.000      CL =  1.5348
      Cm = -0.2190     CD =  0.01756   =>   CDf =  0.00578    CDp =  0.01179

 MRCHDU: Convergence failed at  37  side 2    Res =  0.1676E+00
 MRCHDU: Convergence failed at  38  side 2    Res =  0.1663E+00
 MRCHDU: Convergence failed at  39  side 2    Res =  0.1664E+00
 MRCHDU: Convergence failed at  40  side 2    Res =  0.1681E+00
 MRCHDU: Convergence failed at  41  side 2    Res =  0.1706E+00
 MRCHDU: Convergence failed at  42  side 2    Res =  0.1737E+00
 MRCHDU: Convergence failed at  43  side 2    Res =  0.1772E+00
 MRCHDU: Convergence failed at  44  side 2    Res =  0.1811E+00
 MRCHDU: Convergence failed at  45  side 2    Res =  0.1853E+00
 MRCHDU: Convergence failed at  46  side 2    Res =  0.1898E+00
 MRCHDU: Convergence failed at  47  side 2    Res =  0.1944E+00
 MRCHDU: Convergence failed at  48  side 2    Res =  0.1992E+00
 MRCHDU: Convergence failed at  49  side 2    Res =  0.2041E+00
 MRCHDU: Convergence failed at  50  side 2    Res =  0.2089E+00
 MRCHDU: Convergence failed at  51  side 2    Res =  0.2137E+00
 MRCHDU: Convergence failed at  52  side 2    Res =  0.2184E+00
 MRCHDU: Convergence failed at  53  side 2    Res =  0.2229E+00
 MRCHDU: Convergence failed at  54  side 2    Res =  0.2272E+00
 MRCHDU: Convergence failed at  55  side 2    Res =  0.2311E+00
 MRCHDU: Convergence failed at  56  side 2    Res =  0.2347E+00
 MRCHDU: Convergence failed at  57  side 2    Res =  0.2378E+00
 MRCHDU: Convergence failed at  58  side 2    Res =  0.2403E+00
 MRCHDU: Convergence failed at  59  side 2    Res =  0.2423E+00
 MRCHDU: Convergence failed at  60  side 2    Res =  0.2437E+00
 MRCHDU: Convergence failed at  61  side 2    Res =  0.2444E+00
 MRCHDU: Convergence failed at  62  side 2    Res =  0.2444E+00
 MRCHDU: Convergence failed at  63  side 2    Res =  0.2435E+00
 MRCHDU: Convergence failed at  64  side 2    Res =  0.2419E+00
 MRCHDU: Convergence failed at  65  side 2    Res =  0.2392E+00
 MRCHDU: Convergence failed at  66  side 2    Res =  0.2354E+00
 MRCHDU: Convergence failed at  67  side 2    Res =  0.2302E+00
 MRCHDU: Convergence failed at  68  side 2    Res =  0.2228E+00
 MRCHDU: Convergence failed at  69  side 2    Res =  0.2122E+00
 MRCHDU: Convergence failed at  70  side 2    Res =  0.5270E+00
 MRCHDU: Convergence failed at  71  side 2    Res =  0.4679E+00
 MRCHDU: Convergence failed at  72  side 2    Res =  0.5886E+00
 MRCHDU: Convergence failed at  73  side 2    Res =  0.7358E+00
 MRCHDU: Convergence failed at  74  side 2    Res =  0.9016E+00
 MRCHDU: Convergence failed at  75  side 2    Res =  0.1329E+01
 Side 1  free  transition at x/c =  0.4942   59
 Side 2  free  transition at x/c =  0.1913   32

   3   rms: 0.3079E+01   max: -.1761E+02   T at   32  2   RLX: 0.028
       a =  4.000      CL =  1.6058
      Cm = -0.2577     CD =  0.02799   =>   CDf =  0.00581    CDp =  0.02218

 Side 1  free  transition at x/c =  0.4964   58
 Side 2  free  transition at x/c =  0.2117   35

   4   rms: 0.9754E+00   max: -.3907E+01   D at   65  2   RLX: 0.128
       a =  4.000      CL =  1.5470
      Cm = -0.2537     CD =  0.02966   =>   CDf =  0.00619    CDp =  0.02347

 Side 1  free  transition at x/c =  0.4987   59
 Side 2  free  transition at x/c =  0.2026   34

   5   rms: 0.8296E+00   max: -.3725E+01   D at   64  2   RLX: 0.134
       a =  4.000      CL =  1.4577
      Cm = -0.2333     CD =  0.02630   =>   CDf =  0.00618    CDp =  0.02012

 MRCHDU: Convergence failed at  64  side 2    Res =  0.5286E-01
 Side 1  free  transition at x/c =  0.5006   59
 Side 2  free  transition at x/c =  0.1850   33

   6   rms: 0.6506E+00   max: 0.4186E+01   T at   33  2   RLX: 0.162
       a =  4.000      CL =  1.3556
      Cm = -0.2095     CD =  0.02452   =>   CDf =  0.00634    CDp =  0.01818

 MRCHDU: Convergence failed at  65  side 2    Res =  0.1003E+00
 MRCHDU: Convergence failed at  66  side 2    Res =  0.3825E+00
 MRCHDU: Convergence failed at  67  side 2    Res =  0.4413E-01
 MRCHDU: Convergence failed at  69  side 2    Res =  0.1923E+01
 MRCHDU: Convergence failed at  70  side 2    Res =  0.2563E+01
 MRCHDU: Convergence failed at  71  side 2    Res =  0.4409E+01
 MRCHDU: Convergence failed at  72  side 2    Res =  0.1815E+01
 MRCHDU: Convergence failed at  73  side 2    Res =  0.2299E+01
 MRCHDU: Convergence failed at  74  side 2    Res =  0.6903E+01
 MRCHDU: Convergence failed at  75  side 2    Res =  0.2076E+01
 MRCHDU: Convergence failed at  76  side 2    Res =  0.1262E+01
 MRCHDU: Convergence failed at  77  side 2    Res =  0.4599E+00
 Side 1  free  transition at x/c =  0.5025   58
 Side 2  free  transition at x/c =  0.1656   33

   7   rms: 0.4408E+00   max: -.2215E+01   T at   33  2   RLX: 0.226
       a =  4.000      CL =  1.4439
      Cm = -0.2202     CD =  0.01844   =>   CDf =  0.00672    CDp =  0.01173

 MRCHDU: Convergence failed at  67  side 2    Res =  0.1394E+00
 MRCHDU: Convergence failed at  68  side 2    Res =  0.1114E+00
 MRCHDU: Convergence failed at  69  side 2    Res =  0.9340E-01
 Side 1  free  transition at x/c =  0.4971   58
 Side 2  free  transition at x/c =  0.1779   34

   8   rms: 0.5039E+00   max: -.2659E+01   D at   63  2   RLX: 0.188
       a =  4.000      CL =  1.5174
      Cm = -0.2340     CD =  0.01818   =>   CDf =  0.00660    CDp =  0.01158

 MRCHDU: Convergence failed at  68  side 2    Res =  0.4838E-01
 Side 1  free  transition at x/c =  0.4934   58
 Side 2  free  transition at x/c =  0.1858   33

   9   rms: 0.4058E+00   max: -.2351E+01   D at   62  2   RLX: 0.213
       a =  4.000      CL =  1.5593
      Cm = -0.2368     CD =  0.01848   =>   CDf =  0.00692    CDp =  0.01155

 MRCHDU: Convergence failed at  68  side 2    Res =  0.2353E-01
[...]

   1   rms: 0.1639E+00   max: -.1523E+01   T at   34  2   RLX: 0.328
       a =  6.000      CL =  1.7662
      Cm = -0.2312     CD =  0.02223   =>   CDf =  0.00786    CDp =  0.01436

 MRCHDU: Convergence failed at  36  side 2    Res =  0.2428E+01
 MRCHDU: Convergence failed at  37  side 2    Res =  0.7091E+01
 MRCHDU: Convergence failed at  38  side 2    Res =  0.5522E+02
 MRCHDU: Convergence failed at  39  side 2    Res =  0.4066E+02
 MRCHDU: Convergence failed at  40  side 2    Res =  0.2468E+02
 MRCHDU: Convergence failed at  41  side 2    Res =  0.2314E+02
 MRCHDU: Convergence failed at  42  side 2    Res =  0.2691E+02
 MRCHDU: Convergence failed at  43  side 2    Res =  0.3835E+02
 MRCHDU: Convergence failed at  44  side 2    Res =  0.1275E+03
 MRCHDU: Convergence failed at  45  side 2    Res =  0.6017E+02
 MRCHDU: Convergence failed at  46  side 2    Res =  0.1923E+02
 MRCHDU: Convergence failed at  47  side 2    Res =  0.9918E+01
 MRCHDU: Convergence failed at  48  side 2    Res =  0.5553E+01
 MRCHDU: Convergence failed at  49  side 2    Res =  0.3739E+01
 MRCHDU: Convergence failed at  50  side 2    Res =  0.2663E+01
 Side 1  free  transition at x/c =  0.4372   57
 Side 2  free  transition at x/c =  0.2627   36

   2   rms: 0.2393E+00   max: -.1457E+01   D at   47  2   RLX: 0.343
       a =  6.000      CL =  1.7702
      Cm = -0.2284     CD =  0.02240   =>   CDf =  0.00687    CDp =  0.01553

 Side 1  free  transition at x/c =  0.4292   58
 Side 2  free  transition at x/c =  0.2799   36

   3   rms: 0.1183E+00   max: -.8420E+00   T at   36  2   RLX: 0.594
       a =  6.000      CL =  1.7961
      Cm = -0.2279     CD =  0.02358   =>   CDf =  0.00813    CDp =  0.01545

 Side 1  free  transition at x/c =  0.4218   58
 Side 2  free  transition at x/c =  0.2887   36

   4   rms: 0.6293E-01   max: -.6730E+00   D at   37  2   RLX: 0.743
       a =  6.000      CL =  1.8083
      Cm = -0.2276     CD =  0.02397   =>   CDf =  0.00800    CDp =  0.01597

 Side 1  free  transition at x/c =  0.4189   57
 Side 2  free  transition at x/c =  0.2993   37

   5   rms: 0.1865E-01   max: -.1572E+00   D at   37  2
       a =  6.000      CL =  1.8128
      Cm = -0.2278     CD =  0.02388   =>   CDf =  0.00785    CDp =  0.01603

 Side 1  free  transition at x/c =  0.4173   57
 Side 2  free  transition at x/c =  0.3017   37

   6   rms: 0.1747E-02   max: -.2584E-01   D at   38  2
       a =  6.000      CL =  1.8130
      Cm = -0.2278     CD =  0.02388   =>   CDf =  0.00776    CDp =  0.01612

 Side 1  free  transition at x/c =  0.4173   57
 Side 2  free  transition at x/c =  0.3011   37

   7   rms: 0.3839E-04   max: -.8407E-03   D at   38  2
       a =  6.000      CL =  1.8130
      Cm = -0.2278     CD =  0.02388   =>   CDf =  0.00776    CDp =  0.01612

 Point added to stored polar  1
 Point written to save file  000249M0.1.log                                  
 Dump file unspecified or not available
 Calculating wake trajectory ...
 Calculating source influence matrix ...

 Solving BL system ...

 Side 1  free  transition at x/c =  0.4173   57
 Side 2  free  transition at x/c =  0.3011   37

   1   rms: 0.1962E+00   max: -.1547E+01   T at   37  2   RLX: 0.323
       a =  7.000      CL =  1.8347
      Cm = -0.2263     CD =  0.02473   =>   CDf =  0.00778    CDp =  0.01695

 Side 1  free  transition at x/c =  0.4065   57
 Side 2  free  transition at x/c =  0.3220   38

   2   rms: 0.2201E+00   max: -.2219E+01   T at   38  2   RLX: 0.225
       a =  7.000      CL =  1.8465
      Cm = -0.2258     CD =  0.02547   =>   CDf =  0.00785    CDp =  0.01762

 Side 1  free  transition at x/c =  0.4029   57
 Side 2  free  transition at x/c =  0.3357   39

   3   rms: 0.2897E+00   max: -.1717E+01   T at   39  2   RLX: 0.291
       a =  7.000      CL =  1.8628
      Cm = -0.2262     CD =  0.02585   =>   CDf =  0.00761    CDp =  0.01824

 Side 1  free  transition at x/c =  0.3992   57
 Side 2  free  transition at x/c =  0.3682   39

   4   rms: 0.1118E+00   max: -.1153E+01   T at   39  2   RLX: 0.434
       a =  7.000      CL =  1.8684
      Cm = -0.2247     CD =  0.02643   =>   CDf =  0.00781    CDp =  0.01861

 Side 1  free  transition at x/c =  0.3948   57
 Side 2  free  transition at x/c =  0.4045   41

   5   rms: 0.9628E-01   max: -.1094E+01   T at   41  2   RLX: 0.457
       a =  7.000      CL =  1.8728
      Cm = -0.2238     CD =  0.02673   =>   CDf =  0.00768    CDp =  0.01904

 Side 1  free  transition at x/c =  0.3922   57
 Side 2 forced transition at x/c =  1.0001   72

   6   rms: 0.4833E-01   max: -.4498E+00   D at   40  2
       a =  7.000      CL =  1.8711
      Cm = -0.2213     CD =  0.02653   =>   CDf =  0.00704    CDp =  0.01949

 Side 1  free  transition at x/c =  0.3897   57
 Side 2 forced transition at x/c =  1.0001   72

   7   rms: 0.1018E-01   max: 0.8238E-01   D at   37  2
       a =  7.000      CL =  1.8709
      Cm = -0.2213     CD =  0.02652   =>   CDf =  0.00708    CDp =  0.01944

 Side 1  free  transition at x/c =  0.3898   57
 Side 2 forced transition at x/c =  1.0001   72

   8   rms: 0.1195E-02   max: 0.8720E-02   D at   37  2
       a =  7.000      CL =  1.8709
      Cm = -0.2213     CD =  0.02652   =>   CDf =  0.00707    CDp =  0.01946

 Side 1  free  transition at x/c =  0.3898   57
 Side 2 forced transition at x/c =  1.0001   72

   9   rms: 0.1481E-04   max: 0.1099E-03   D at   36  2
       a =  7.000      CL =  1.8709
      Cm = -0.2213     CD =  0.02652   =>   CDf =  0.00707    CDp =  0.01946

 Point added to stored polar  1
 Point written to save file  000249M0.1.log                                  
 Dump file unspecified or not available
 Calculating wake trajectory ...
 Calculating source influence matrix ...

 Solving BL system ...

 Side 1  free  transition at x/c =  0.3898   57
 Side 2 forced transition at x/c =  1.0001   72

   1   rms: 0.1702E+00   max: -.4585E+00   n at   49  2   RLX: 0.940
       a =  8.000      CL =  1.9210
      Cm = -0.2148     CD =  0.03028   =>   CDf =  0.00677    CDp =  0.02351

 Side 1  free  transition at x/c =  0.3679   57
 Side 2 forced transition at x/c =  1.0001   71

   2   rms: 0.4446E-01   max: -.4606E+00   D at   57  1
       a =  8.000      CL =  1.9114
      Cm = -0.2130     CD =  0.03082   =>   CDf =  0.00721    CDp =  0.02361

 Side 1  free  transition at x/c =  0.3677   57
 Side 2 forced transition at x/c =  1.0001   71

   3   rms: 0.1584E-01   max: -.1037E+00   D at   58  1
       a =  8.000      CL =  1.9206
      Cm = -0.2142     CD =  0.03070   =>   CDf =  0.00713    CDp =  0.02357

 Side 1  free  transition at x/c =  0.3650   56
 Side 2 forced transition at x/c =  1.0001   71

   4   rms: 0.2271E-02   max: -.2619E-01   C at   56  1
       a =  8.000      CL =  1.9214
      Cm = -0.2144     CD =  0.03071   =>   CDf =  0.00724    CDp =  0.02347

 Side 1  free  transition at x/c =  0.3647   56
 Side 2 forced transition at x/c =  1.0001   71

   5   rms: 0.1994E-03   max: -.1050E-02   D at   82  1
       a =  8.000      CL =  1.9215
      Cm = -0.2144     CD =  0.03070   =>   CDf =  0.00722    CDp =  0.02348

 Side 1  free  transition at x/c =  0.3647   56
 Side 2 forced transition at x/c =  1.0001   71

   6   rms: 0.3854E-05   max: 0.4404E-04   C at   71  2
       a =  8.000      CL =  1.9215
      Cm = -0.2144     CD =  0.03070   =>   CDf =  0.00722    CDp =  0.02348

 Point added to stored polar  1
 Point written to save file  000249M0.1.log                                  
 Dump file unspecified or not available
 Calculating wake trajectory ...
 Calculating source influence matrix ...

 Solving BL system ...

 Side 1  free  transition at x/c =  0.3647   56
 Side 2 forced transition at x/c =  1.0001   71

   1   rms: 0.1318E+00   max: 0.2284E+00   D at   83  2   RLX: 0.831
       a =  9.000      CL =  1.9645
      Cm = -0.2094     CD =  0.03432   =>   CDf =  0.00724    CDp =  0.02708

 Side 1  free  transition at x/c =  0.3431   55
 Side 2 forced transition at x/c =  1.0001   71

   2   rms: 0.2119E-01   max: -.2021E+00   D at   55  1
       a =  9.000      CL =  1.9624
      Cm = -0.2073     CD =  0.03580   =>   CDf =  0.00699    CDp =  0.02881

 Side 1  free  transition at x/c =  0.3418   56
 Side 2 forced transition at x/c =  1.0001   70

   3   rms: 0.4178E-02   max: -.2202E-01   D at   82  1
       a =  9.000      CL =  1.9657
      Cm = -0.2076     CD =  0.03559   =>   CDf =  0.00715    CDp =  0.02844

 Side 1  free  transition at x/c =  0.3412   56
 Side 2 forced transition at x/c =  1.0001   70

   4   rms: 0.8755E-03   max: -.1018E-01   D at    4  1
       a =  9.000      CL =  1.9658
      Cm = -0.2077     CD =  0.03560   =>   CDf =  0.00717    CDp =  0.02843

 Side 1  free  transition at x/c =  0.3412   56
 Side 2 forced transition at x/c =  1.0001   70

   5   rms: 0.5352E-05   max: 0.4475E-04   C at   70  2
       a =  9.000      CL =  1.9658
      Cm = -0.2077     CD =  0.03560   =>   CDf =  0.00717    CDp =  0.02843

 Point added to stored polar  1
 Point written to save file  000249M0.1.log                                  
 Dump file unspecified or not available
 Calculating wake trajectory ...
 Calculating source influence matrix ...

 Solving BL system ...

 Side 1  free  transition at x/c =  0.3412   56
 Side 2 forced transition at x/c =  1.0001   70

   1   rms: 0.1243E+00   max: 0.2500E+00   D at   84  2   RLX: 0.729
       a = 10.000      CL =  1.9967
      Cm = -0.2031     CD =  0.03962   =>   CDf =  0.00719    CDp =  0.03242

 Side 1  free  transition at x/c =  0.3257   55
 Side 2 forced transition at x/c =  1.0001   70

   2   rms: 0.3220E-01   max: -.1761E+00   D at   55  1
       a = 10.000      CL =  2.0017
      Cm = -0.2011     CD =  0.04163   =>   CDf =  0.00688    CDp =  0.03474

 Side 1  free  transition at x/c =  0.3194   56
 Side 2 forced transition at x/c =  1.0001   69

   3   rms: 0.5362E-02   max: -.3599E-01   D at   81  1
       a = 10.000      CL =  2.0044
      Cm = -0.2013     CD =  0.04133   =>   CDf =  0.00713    CDp =  0.03420

 Side 1  free  transition at x/c =  0.3196   56
 Side 2 forced transition at x/c =  1.0001   69

   4   rms: 0.5890E-03   max: -.4905E-02   D at    4  1
       a = 10.000      CL =  2.0048
      Cm = -0.2013     CD =  0.04133   =>   CDf =  0.00713    CDp =  0.03420

 Side 1  free  transition at x/c =  0.3196   56
 Side 2 forced transition at x/c =  1.0001   69

   5   rms: 0.1174E-04   max: 0.1055E-03   C at   69  2
       a = 10.000      CL =  2.0048
      Cm = -0.2013     CD =  0.04133   =>   CDf =  0.00713    CDp =  0.03420

 Point added to stored polar  1
 Point written to save file  000249M0.1.log                                  
 Dump file unspecified or not available
 Calculating wake trajectory ...
 Calculating source influence matrix ...

 Solving BL system ...

 Side 1  free  transition at x/c =  0.3196   56
 Side 2 forced transition at x/c =  1.0001   69

   1   rms: 0.1223E+00   max: 0.2554E+00   D at   84  2   RLX: 0.648
       a = 11.000      CL =  2.0271
      Cm = -0.1974     CD =  0.04571   =>   CDf =  0.00715    CDp =  0.03856

 Side 1  free  transition at x/c =  0.3070   55
 Side 2 forced transition at x/c =  1.0001   69

   2   rms: 0.4361E-01   max: -.2248E+00   D at   55  1
       a = 11.000      CL =  2.0308
      Cm = -0.1951     CD =  0.04883   =>   CDf =  0.00716    CDp =  0.04167

 Side 1  free  transition at x/c =  0.2958   55
 Side 2 forced transition at x/c =  1.0001   69

   3   rms: 0.1051E-01   max: -.5418E-01   D at   79  1
       a = 11.000      CL =  2.0308
      Cm = -0.1950     CD =  0.04860   =>   CDf =  0.00720    CDp =  0.04141

 Side 1  free  transition at x/c =  0.2978   55
 Side 2 forced transition at x/c =  1.0001   69

   4   rms: 0.3478E-02   max: -.1987E-01   D at   78  1
       a = 11.000      CL =  2.0333
      Cm = -0.1951     CD =  0.04841   =>   CDf =  0.00710    CDp =  0.04131

 Side 1  free  transition at x/c =  0.2975   55
 Side 2 forced transition at x/c =  1.0001   69

   5   rms: 0.1802E-03   max: -.1183E-02   D at   82  2
       a = 11.000      CL =  2.0335
      Cm = -0.1951     CD =  0.04842   =>   CDf =  0.00712    CDp =  0.04130

 Side 1  free  transition at x/c =  0.2974   55
 Side 2 forced transition at x/c =  1.0001   69

   6   rms: 0.5158E-05   max: -.3741E-04   D at   82  2
       a = 11.000      CL =  2.0335
      Cm = -0.1951     CD =  0.04842   =>   CDf =  0.00712    CDp =  0.04130

 Point added to stored polar  1
 Point written to save file  000249M0.1.log                                  
 Dump file unspecified or not available
 Calculating wake trajectory ...
 Calculating source influence matrix ...

 Solving BL system ...

 Side 1  free  transition at x/c =  0.2974   55
 Side 2 forced transition at x/c =  1.0001   69

   1   rms: 0.1321E+00   max: -.7120E+00   D at   55  1   RLX: 0.569
       a = 12.000      CL =  2.0428
      Cm = -0.1914     CD =  0.05349   =>   CDf =  0.00675    CDp =  0.04674

 Side 1  free  transition at x/c =  0.2814   55
 Side 2 forced transition at x/c =  1.0001   68

   2   rms: 0.6594E-01   max: -.5360E+00   D at   55  1   RLX: 0.933
       a = 12.000      CL =  2.0383
      Cm = -0.1893     CD =  0.05836   =>   CDf =  0.00709    CDp =  0.05127

 Side 1  free  transition at x/c =  0.2769   54
 Side 2 forced transition at x/c =  1.0001   68

   3   rms: 0.1598E-01   max: -.9416E-01   D at   56  1
       a = 12.000      CL =  2.0466
      Cm = -0.1895     CD =  0.05759   =>   CDf =  0.00695    CDp =  0.05065

 Side 1  free  transition at x/c =  0.2723   54
 Side 2 forced transition at x/c =  1.0001   68

   4   rms: 0.2080E-02   max: -.1349E-01   D at   54  1
       a = 12.000      CL =  2.0476
      Cm = -0.1895     CD =  0.05765   =>   CDf =  0.00698    CDp =  0.05067

 Side 1  free  transition at x/c =  0.2724   54
 Side 2 forced transition at x/c =  1.0001   68

   5   rms: 0.1946E-03   max: -.9785E-03   D at   81  2
       a = 12.000      CL =  2.0478
      Cm = -0.1896     CD =  0.05766   =>   CDf =  0.00698    CDp =  0.05068

 Side 1  free  transition at x/c =  0.2724   54
 Side 2 forced transition at x/c =  1.0001   68

   6   rms: 0.6788E-05   max: -.5988E-04   D at   81  2
       a = 12.000      CL =  2.0478
      Cm = -0.1896     CD =  0.05766   =>   CDf =  0.00698    CDp =  0.05068

 Point added to stored polar  1
 Point written to save file  000249M0.1.log                                  
 Dump file unspecified or not available
 Calculating wake trajectory ...
 Calculating source influence matrix ...

 Solving BL system ...

 Side 1  free  transition at x/c =  0.2724   54
 Side 2 forced transition at x/c =  1.0001   68

   1   rms: 0.1147E+00   max: 0.2281E+00   D at   85  2   RLX: 0.517
       a = 13.000      CL =  2.0626
      Cm = -0.1876     CD =  0.06231   =>   CDf =  0.00659    CDp =  0.05573

 Side 1  free  transition at x/c =  0.2611   54
 Side 2 forced transition at x/c =  1.0001   67

   2   rms: 0.5774E-01   max: -.3077E+00   C at   54  1
       a = 13.000      CL =  2.0641
      Cm = -0.1855     CD =  0.06801   =>   CDf =  0.00707    CDp =  0.06094

 Side 1  free  transition at x/c =  0.2505   54
 Side 2 forced transition at x/c =  1.0001   67

   3   rms: 0.7725E-02   max: -.7450E-01   D at   54  1
       a = 13.000      CL =  2.0605
      Cm = -0.1850     CD =  0.06765   =>   CDf =  0.00687    CDp =  0.06078

 Side 1  free  transition at x/c =  0.2521   54
 Side 2 forced transition at x/c =  1.0001   67

   4   rms: 0.1340E-02   max: -.8012E-02   D at   76  1
       a = 13.000      CL =  2.0615
      Cm = -0.1851     CD =  0.06754   =>   CDf =  0.00681    CDp =  0.06073

 Side 1  free  transition at x/c =  0.2520   54
 Side 2 forced transition at x/c =  1.0001   67

   5   rms: 0.1054E-03   max: -.6212E-03   D at   81  2
       a = 13.000    Got result {'DD': 0.01685, 'Dmin': 0.01702, 'LL': -1.5033}
Completed successfully in 2.89 seconds. [{'DD': 0.01685, 'Dmin': 0.01702, 'LL': -1.5033}]
  CL =  2.0615
      Cm = -0.1851     CD =  0.06755   =>   CDf =  0.00682    CDp =  0.06074

 Side 1  free  transition at x/c =  0.2520   54
 Side 2 forced transition at x/c =  1.0001   67

   6   rms: 0.7132E-05   max: 0.4400E-04   C at   67  2
       a = 13.000      CL =  2.0615
      Cm = -0.1851     CD =  0.06755   =>   CDf =  0.00682    CDp =  0.06074

 Point added to stored polar  1
 Point written to save file  000249M0.1.log                                  
 Dump file unspecified or not available
 Calculating wake trajectory ...
 Calculating source influence matrix ...

 Solving BL system ...

 Side 1  free  transition at x/c =  0.2520   54
 Side 2 forced transition at x/c =  1.0001   67

   1   rms: 0.1206E+00   max: 0.4539E+00   D at   74  1   RLX: 0.458
       a = 14.000      CL =  2.0642
      Cm = -0.1835     CD =  0.07335   =>   CDf =  0.00641    CDp =  0.06694

 Side 1  free  transition at x/c =  0.2440   54
 Side 2 forced transition at x/c =  1.0001   66

   2   rms: 0.6835E-01   max: 0.5031E+00   D at    2  1
       a = 14.000      CL =  2.0748
      Cm = -0.1821     CD =  0.07894   =>   CDf =  0.00682    CDp =  0.07212

 Side 1  free  transition at x/c =  0.2297   54
 Side 2 forced transition at x/c =  1.0001   66

   3   rms: 0.1577E-01   max: 0.9550E-01   D at   55  1
       a = 14.000      CL =  2.0631
      Cm = -0.1815     CD =  0.07953   =>   CDf =  0.00680    CDp =  0.07273

 Side 1  free  transition at x/c =  0.2327   54
 Side 2 forced transition at x/c =  1.0001   66

   4   rms: 0.4372E-02   max: -.3163E-01   D at   75  1
       a = 14.000      CL =  2.0655
      Cm = -0.1814     CD =  0.07896   =>   CDf =  0.00664    CDp =  0.07231

 Side 1  free  transition at x/c =  0.2323   54
 Side 2 forced transition at x/c =  1.0001   66

   5   rms: 0.4714E-03   max: -.2557E-02   D at   81  2
       a = 14.000      CL =  2.0659
      Cm = -0.1815     CD =  0.07901   =>   CDf =  0.00667    CDp =  0.07235

 Side 1  free  transition at x/c =  0.2323   54
 Side 2 forced transition at x/c =  1.0001   66

   6   rms: 0.2143E-04   max: -.1593E-03   D at   81  2
       a = 14.000      CL =  2.0659
      Cm = -0.1815     CD =  0.07902   =>   CDf =  0.00667    CDp =  0.07235

 Point added to stored polar  1
 Point written to save file  000249M0.1.log                                  
 Dump file unspecified or not available
 Calculating wake trajectory ...
 Calculating source influence matrix ...

 Solving BL system ...

 Side 1  free  transition at x/c =  0.2323   54
 Side 2 forced transition at x/c =  1.0001   66

   1   rms: 0.1187E+00   max: 0.4727E+00   D at   73  1   RLX: 0.413
       a = 15.000      CL =  2.0644
      Cm = -0.1803     CD =  0.08498   =>   CDf =  0.00669    CDp =  0.07829

 Side 1  free  transition at x/c =  0.2244   53
 Side 2 forced transition at x/c =  1.0001   66

   2   rms: 0.6690E-01   max: 0.2620E+00   D at   73  1
       a = 15.000      CL =  2.0712
      Cm = -0.1797     CD =  0.09236   =>   CDf =  0.00616    CDp =  0.08619

 Side 1  free  transition at x/c =  0.2121   53
 Side 2 forced transition at x/c =  1.0001   65

   3   rms: 0.1095E-01   max: 0.6045E-01   D at   74  1
       a = 15.000      CL =  2.0615
      Cm = -0.1789     CD =  0.09205   =>   CDf =  0.00656    CDp =  0.08549

 Side 1  free  transition at x/c =  0.2133   53
 Side 2 forced transition at x/c =  1.0001   65

   4   rms: 0.1143E-02   max: -.9433E-02   D at    4  1
       a = 15.000      CL =  2.0620
      Cm = -0.1789     CD =  0.09192   =>   CDf =  0.00653    CDp =  0.08540

 Side 1  free  transition at x/c =  0.2132   53
 Side 2 forced transition at x/c =  1.0001   65

   5   rms: 0.6986E-04   max: -.3470E-03   D at   80  2
       a = 15.000      CL =  2.0621
      Cm = -0.1789     CD =  0.09193   =>   CDf =  0.00653    CDp =  0.08541

 Point added to stored polar  1
 Point written to save file  000249M0.1.log                                  
 Dump file unspecified or not available

.OPERva   c>  
 XFOIL   c>  
