Job launching after 0.31 seconds in submission.
Running python job.
Changed into dir /home/simonx/Documents/Udacity/Projects/capstone/PESM_NSGA2_CST_XFoil
Importing evaluationFunctionXFoil.py
Running evaluationFunctionXFoil.main()
0
1
2
0.04
resp: 
 ===================================================
  XFOIL Version 6.97
  Copyright (C) 2000   Mark Drela, Harold Youngren

  This software comes with ABSOLUTELY NO WARRANTY,
    subject to the GNU General Public License.

  Caveat computor
 ===================================================

 File  xfoil.def  not found

   QUIT    Exit program

  .OPER    Direct operating point(s)
  .MDES    Complex mapping design routine
  .QDES    Surface speed design routine
  .GDES    Geometry design routine

   SAVE f  Write airfoil to labeled coordinate file
   PSAV f  Write airfoil to plain coordinate file
   ISAV f  Write airfoil to ISES coordinate file
   MSAV f  Write airfoil to MSES coordinate file
   REVE    Reverse written-airfoil node ordering
   DELI i  Change written-airfoil file delimiters

   LOAD f  Read buffer airfoil from coordinate file
   NACA i  Set NACA 4,5-digit airfoil and buffer airfoil
   INTE    Set buffer airfoil by interpolating two airfoils
   NORM    Buffer airfoil normalization toggle
   HALF    Halve the number of points in buffer airfoil
   XYCM rr Change CM reference location, currently  0.25000 0.00000

   BEND    Display structural properties of current airfoil

   PCOP    Set current-airfoil panel nodes directly from buffer airfoil points
   PANE    Set current-airfoil panel nodes ( 160 ) based on curvature
  .PPAR    Show/change paneling

  .PLOP    Plotting options

   WDEF f  Write  current-settings file
   RDEF f  Reread current-settings file
   NAME s  Specify new airfoil name
   NINC    Increment name version number

   Z       Zoom    | (available in all menus)
   U       Unzoom  | 

 XFOIL   c>   ...............................................

  G raphics-enable flag:        T
  S ize of plot object          10.00"
  A spect ratio of plot object   0.5500
  P age dimensions              11.00 x  8.50"
  M argins from page edges       0.00",  0.00"
  F ont size (relative)          0.0150
  W indow/screen size fraction   0.8000
  B lowup input method:        Cursor    
  O rientation of plot:        Landscape 
  C olor PostScript output?     F

      Option, Value   (or <Return>)    c>   ...............................................

  G raphics-enable flag:        F
  S ize of plot object          10.00"
  A spect ratio of plot object   0.5500
  P age dimensions              11.00 x  8.50"
  M argins from page edges       0.00",  0.00"
  F ont size (relative)          0.0150
  W indow/screen size fraction   0.8000
  B lowup input method:        Cursor    
  O rientation of plot:        Landscape 
  C olor PostScript output?     F

      Option, Value   (or <Return>)    c>  
 XFOIL   c>  
 Labeled airfoil file.  Name:  000170                                          

 Number of input coordinate points: 200
 Clockwise ordering
 Max thickness =     0.156308  at x =   0.346
 Max camber    =     0.079184  at x =   0.563

  LE  x,y  =  -0.00001   0.00046  |   Chord =   0.99989
  TE  x,y  =   0.99988   0.00006  |

 Current airfoil nodes set from buffer airfoil nodes ( 200 )

 XFOIL   c>  
 You are working with the buffer airfoil

.GDES   c>  
  i       x        y      angle
   2   0.9990   0.0005   -0.023
   3   0.9978   0.0010    0.044
   4   0.9961   0.0018    0.017
   5   0.9938   0.0028    0.047
   6   0.9911   0.0041    0.041
   7   0.9880   0.0055    0.047
   8   0.9843   0.0072    0.065
   9   0.9801   0.0090    0.080
  10   0.9755   0.0111    0.072
  11   0.9704   0.0134    0.101
  12   0.9649   0.0159    0.099
  13   0.9589   0.0186    0.122
  14   0.9524   0.0214    0.128
  15   0.9455   0.0245    0.146
  16   0.9382   0.0277    0.167
  17   0.9304   0.0311    0.173
  18   0.9222   0.0346    0.205
  19   0.9135   0.0383    0.209
  20   0.9045   0.0421    0.237
  21   0.8951   0.0460    0.254
  22   0.8853   0.0501    0.281
  23   0.8751   0.0542    0.297
  24   0.8645   0.0584    0.329
  25   0.8536   0.0627    0.348
  26   0.8423   0.0671    0.383
  27   0.8307   0.0715    0.397
  28   0.8187   0.0759    0.434
  29   0.8065   0.0804    0.464
  30   0.7939   0.0848    0.491
  31   0.7810   0.0892    0.519
  32   0.7679   0.0936    0.555
  33   0.7545   0.0979    0.585
  34   0.7409   0.1022    0.616
  35   0.7270   0.1063    0.650
  36   0.7129   0.1104    0.681
  37   0.6986   0.1143    0.718
  38   0.6841   0.1181    0.745
  39   0.6694   0.1217    0.782
  40   0.6545   0.1252    0.807
  41   0.6395   0.1285    0.845
  42   0.6243   0.1315    0.870
  43   0.6091   0.1344    0.903
  44   0.5937   0.1370    0.927
  45   0.5782   0.1394    0.955
  46   0.5627   0.1415    0.973
  47   0.5471   0.1434    1.003
  48   0.5314   0.1450    1.018
  49   0.5157   0.1463    1.035
  50   0.5000   0.1473    1.055
  51   0.4843   0.1481    1.058
  52   0.4686   0.1485    1.076
  53   0.4529   0.1487    1.073
  54   0.4373   0.1486    1.085
  55   0.4218   0.1481    1.076
  56   0.4063   0.1474    1.082
  57   0.3909   0.1464    1.067
  58   0.3757   0.1451    1.066
  59   0.3605   0.1436    1.053
  60   0.3455   0.1418    1.032
  61   0.3306   0.1397    1.024
  62   0.3159   0.1374    1.001
  63   0.3014   0.1348    0.981
  64   0.2871   0.1320    0.959
  65   0.2730   0.1291    0.933
  66   0.2591   0.1259    0.912
  67   0.2455   0.1226    0.887
  68   0.2321   0.1191    0.862
  69   0.2190   0.1154    0.833
  70   0.2061   0.1116    0.816
  71   0.1935   0.1078    0.789
  72   0.1813   0.1038    0.764
  73   0.1693   0.0997    0.751
  74   0.1577   0.0956    0.736
  75   0.1464   0.0915    0.717
  76   0.1355   0.0873    0.707
  77   0.1249   0.0831    0.715
  78   0.1147   0.0789    0.706
  79   0.1049   0.0747    0.723
  80   0.0955   0.0706    0.741
  81   0.0865   0.0665    0.765
  82   0.0778   0.0624    0.816
  83   0.0696   0.0584    0.873
  84   0.0618   0.0544    0.938
  85   0.0545   0.0505    1.035
  86   0.0476   0.0467    1.179
  87   0.0411   0.0430    1.310
  88   0.0351   0.0393    1.511
  89   0.0296   0.0357    1.769
  90   0.0245   0.0322    2.058
  91   0.0199   0.0287    2.456
  92   0.0157   0.0253    2.936
  93   0.0120   0.0220    3.510
  94   0.0089   0.0188    4.266
  95   0.0062   0.0155    5.106
  96   0.0039   0.0124    6.100
  97   0.0022   0.0093    7.194
  98   0.0010   0.0062    8.166
  99   0.0002   0.0031    8.906
 100   0.0000   0.0000   13.334
 101   0.0002  -0.0016   16.028
 102   0.0010  -0.0032   12.882
 103   0.0022  -0.0048    9.739
 104   0.0039  -0.0064    7.225
 105   0.0062  -0.0080    5.465
 106   0.0089  -0.0095    4.257
 107   0.0120  -0.0111    3.347
 108   0.0157  -0.0126    2.744
 109   0.0199  -0.0140    2.295
 110   0.0245  -0.0155    1.928
 111   0.0296  -0.0169    1.687
 112   0.0351  -0.0182    1.481
 113   0.0411  -0.0195    1.324
 114   0.0476  -0.0208    1.212
 115   0.0545  -0.0219    1.099
 116   0.0618  -0.0230    1.025
 117   0.0696  -0.0241    0.964
 118   0.0778  -0.0250    0.906
 119   0.0865  -0.0259    0.864
 120   0.0955  -0.0266    0.824
 121   0.1049  -0.0273    0.803
 122   0.1147  -0.0278    0.762
 123   0.1249  -0.0282    0.745
 124   0.1355  -0.0285    0.725
 125   0.1464  -0.0287    0.694
 126   0.1577  -0.0288    0.688
 127   0.1693  -0.0287    0.654
 128   0.1813  -0.0284    0.649
 129   0.1935  -0.0281    0.614
 130   0.2061  -0.0276    0.605
 131   0.2190  -0.0269    0.577
 132   0.2321  -0.0261    0.561
 133   0.2455  -0.0251    0.526
 134   0.2591  -0.0240    0.511
 135   0.2730  -0.0228    0.475
 136   0.2871  -0.0214    0.452
 137   0.3014  -0.0198    0.418
 138   0.3159  -0.0182    0.390
 139   0.3306  -0.0164    0.356
 140   0.3455  -0.0145    0.318
 141   0.3605  -0.0125    0.284
 142   0.3757  -0.0105    0.244
 143   0.3909  -0.0083    0.207
 144   0.4063  -0.0060    0.168
 145   0.4218  -0.0037    0.125
 146   0.4373  -0.0014    0.081
 147   0.4529   0.0010    0.039
 148   0.4686   0.0034   -0.003
 149   0.4843   0.0058   -0.047
 150   0.5000   0.0082   -0.096
 151   0.5157   0.0105   -0.138
 152   0.5314   0.0129   -0.184
 153   0.5471   0.0151   -0.231
 154   0.5627   0.0173   -0.272
 155   0.5782   0.0194   -0.323
 156   0.5937   0.0214   -0.363
 157   0.6091   0.0233   -0.405
 158   0.6243   0.0251   -0.451
 159   0.6395   0.0268   -0.491
 160   0.6545   0.0283   -0.531
 161   0.6694   0.0296   -0.564
 162   0.6841   0.0308   -0.610
 163   0.6986   0.0318   -0.635
 164   0.7129   0.0326   -0.675
 165   0.7270   0.0333   -0.699
 166   0.7409   0.0338   -0.729
 167   0.7545   0.0341   -0.755
 168   0.7679   0.0342   -0.771
 169   0.7810   0.0341   -0.790
 170   0.7939   0.0339   -0.808
 171   0.8065   0.0335   -0.816
 172   0.8187   0.0329   -0.826
 173   0.8307   0.0322   -0.834
 174   0.8423   0.0313   -0.826
 175   0.8536   0.0303   -0.833
 176   0.8645   0.0291   -0.823
 177   0.8751   0.0279   -0.815
 178   0.8853   0.0265   -0.806
 179   0.8951   0.0250   -0.784
 180   0.9045   0.0235   -0.763
 181   0.9135   0.0219   -0.752
 182   0.9222   0.0203   -0.714
 183   0.9304   0.0186   -0.699
 184   0.9382   0.0169   -0.670
 185   0.9455   0.0153   -0.621
 186   0.9524   0.0136   -0.612
 187   0.9589   0.0120   -0.557
 188   0.9649   0.0104   -0.527
 189   0.9704   0.0089   -0.488
 190   0.9755   0.0075   -0.439
 191   0.9801   0.0062   -0.415
 192   0.9843   0.0049   -0.355
 193   0.9880   0.0038   -0.318
 194   0.9911   0.0028   -0.292
 195   0.9938   0.0020   -0.215
 196   0.9961   0.0013   -0.174
 197   0.9978   0.0007   -0.184
 198   0.9990   0.0003   -0.010
 199   0.9998   0.0001   -0.117

 Maximum panel corner angle = 16.028   at  i,x,y  = 101   0.0002  -0.0016

 Enter corner angle criterion for refinement (deg):   8.014
 Enter type of spline parameter (1=uniform, 2=arclength):   1
 Enter refinement x limits:  -0.10000   1.10000
 Number of points added:           12
 Max thickness =     0.156299  at x =   0.345
 Max camber    =     0.079393  at x =   0.563

 Maximum panel corner angle =  7.450   at  i,x,y  = 107   0.0001  -0.0012

.GDES   c>  
 Buffer airfoil is not identical to current airfoil

 XFOIL   c>  
 Blunt trailing edge.  Gap =  0.00027

 Paneling parameters used...
   Number of panel nodes       160
   Panel bunching parameter    1.000
   TE/LE panel density ratio   0.150
   Refined-area/LE panel density ratio    0.200
   Top    side refined area x/c limits  1.000 1.000
   Bottom side refined area x/c limits  1.000 1.000

 XFOIL   c>  
Enter output filename   s>  
 XFOIL   c>  
.OPERi   c>   Current iteration limit:          20

Enter new iteration limit   i>  
Enter new iteration limit   i>  
Enter new iteration limit   i>  
.OPERi   c>  
 M  =    0.0000
 Re =  0.3000E+06

.OPERv   c>  
 Sonic Cp =   -420.65      Sonic Q/Qinf =    22.825


.OPERv   c>  
 Polar  1 newly created for accumulation
 Airfoil archived with polar: 000170                                          

Enter  polar save filename  OR  <return> for no file   s>  
 New polar save file available

Enter  polar dump filename  OR  <return> for no file   s>  
 Polar dump file will NOT be written

 Polar accumulation enabled

.OPERva   c>   Calculating unit vorticity distributions ...
 Calculating wake trajectory ...
 Calculating source influence matrix ...

 Solving BL system ...

 Initializing BL ...
    side            1  ...
 MRCHUE: Inverse mode at  57     Hk =   3.901
 MRCHUE: Inverse mode at  58     Hk =   4.505
 MRCHUE: Inverse mode at  59     Hk =   5.096
 MRCHUE: Inverse mode at  60     Hk =   5.678
 MRCHUE: Inverse mode at  61     Hk =   6.252
 MRCHUE: Inverse mode at  62     Hk =   6.820
 MRCHUE: Inverse mode at  63     Hk =   7.383
 MRCHUE: Inverse mode at  64     Hk =   7.942
 MRCHUE: Inverse mode at  65     Hk =   8.498
 MRCHUE: Inverse mode at  66     Hk =   9.051
 MRCHUE: Inverse mode at  67     Hk =   9.240
 MRCHUE: Inverse mode at  68     Hk =   6.657
 MRCHUE: Inverse mode at  69     Hk =   5.180
 MRCHUE: Inverse mode at  70     Hk =   4.120
 MRCHUE: Inverse mode at  71     Hk =   3.294
 MRCHUE: Inverse mode at  86     Hk =   2.500
 MRCHUE: Inverse mode at  87     Hk =   2.500
    side            2  ...
 MRCHUE: Inverse mode at  35     Hk =   4.022
 MRCHUE: Inverse mode at  36     Hk =   4.603
 MRCHUE: Inverse mode at  37     Hk =   5.168
 MRCHUE: Inverse mode at  38     Hk =   5.719
 MRCHUE: Inverse mode at  39     Hk =   6.258
 MRCHUE: Inverse mode at  40     Hk =   6.787
 MRCHUE: Inverse mode at  41     Hk =   7.305
 MRCHUE: Inverse mode at  42     Hk =   7.813
 MRCHUE: Inverse mode at  43     Hk =   8.310
 MRCHUE: Inverse mode at  44     Hk =   8.799
 MRCHUE: Inverse mode at  45     Hk =   9.279
 MRCHUE: Inverse mode at  46     Hk =   8.196
 MRCHUE: Inverse mode at  47     Hk =   6.405
 MRCHUE: Inverse mode at  48     Hk =   5.193
 MRCHUE: Inverse mode at  49     Hk =   4.273
 MRCHUE: Inverse mode at  50     Hk =   3.535

 Side 1  free  transition at x/c =  0.7138   67
 Side 2  free  transition at x/c =  0.5664   46

   1   rms: 0.1875E+00   max: -.7229E+00   D at   50  2   RLX: 0.692
       a =  2.000      CL =  1.3678
      Cm = -0.2906     CD =  0.01475   =>   CDf =  0.00645    CDp =  0.00831

 Side 1  free  transition at x/c =  0.7182   67
 Side 2  free  transition at x/c =  0.5717   47

   2   rms: 0.8299E-01   max: -.5519E+00   T at    2  2   RLX: 0.906
       a =  2.000      CL =  1.3165
      Cm = -0.2791     CD =  0.01489   =>   CDf =  0.00650    CDp =  0.00840

 Side 1  free  transition at x/c =  0.7147   66
 Side 2  free  transition at x/c =  0.5672   47

   3   rms: 0.2681E-01   max: -.1667E+00   D at   51  2
       a =  2.000      CL =  1.2966
      Cm = -0.2750     CD =  0.01561   =>   CDf =  0.00658    CDp =  0.00903

 Side 1  free  transition at x/c =  0.7109   66
 Side 2  free  transition at x/c =  0.5649   47

   4   rms: 0.3827E-02   max: -.3234E-01   D at   67  1
       a =  2.000      CL =  1.2992
      Cm = -0.2755     CD =  0.01554   =>   CDf =  0.00655    CDp =  0.00899

 Side 1  free  transition at x/c =  0.7114   66
 Side 2  free  transition at x/c =  0.5651   47

   5   rms: 0.3840E-04   max: 0.1898E-03   D at   78  2
       a =  2.000      CL =  1.2992
      Cm = -0.2755     CD =  0.01554   =>   CDf =  0.00656    CDp =  0.00898

 Point added to stored polar  1
 Point written to save file  000170M0.04.log                                 
 Dump file unspecified or not available
 Calculating wake trajectory ...
 Calculating source influence matrix ...

 Solving BL system ...

 Side 1  free  transition at x/c =  0.7114   66
 Side 2  free  transition at x/c =  0.5651   47

   1   rms: 0.1528E+00   max: -.6780E+00   T at   47  2   RLX: 0.737
       a =  3.000      CL =  1.3701
      Cm = -0.2745     CD =  0.01628   =>   CDf =  0.00641    CDp =  0.00987

 Side 1  free  transition at x/c =  0.7007   67
 Side 2  free  transition at x/c =  0.5852   47

   2   rms: 0.5800E-01   max: -.2791E+00   T at   47  2
       a =  3.000      CL =  1.4157
      Cm = -0.2778     CD =  0.01601   =>   CDf =  0.00649    CDp =  0.00952

 Side 1  free  transition at x/c =  0.7007   67
 Side 2  free  transition at x/c =  0.5982   48

   3   rms: 0.1003E-01   max: 0.1156E+00   D at   48  2
       a =  3.000      CL =  1.4151
      Cm = -0.2777     CD =  0.01599   =>   CDf =  0.00641    CDp =  0.00958

 Side 1  free  transition at x/c =  0.7006   67
 Side 2  free  transition at x/c =  0.5968   48

   4   rms: 0.7203E-03   max: 0.9202E-02   D at   49  2
       a =  3.000      CL =  1.4151
      Cm = -0.2777     CD =  0.01599   =>   CDf =  0.00642    CDp =  0.00957

 Side 1  free  transition at x/c =  0.7006   67
 Side 2  free  transition at x/c =  0.5966   48

   5   rms: 0.4117E-05   max: -.4134E-04   D at   48  2
       a =  3.000      CL =  1.4151
      Cm = -0.2777     CD =  0.01599   =>   CDf =  0.00642    CDp =  0.00957

 Point added to stored polar  1
 Point written to save file  000170M0.04.log                                 
 Dump file unspecified or not available
 Calculating wake trajectory ...
 Calculating source influence matrix ...

 Solving BL system ...

 Side 1  free  transition at x/c =  0.7006   67
 Side 2  free  transition at x/c =  0.5966   48

   1   rms: 0.1694E+00   max: -.7301E+00   T at   48  2   RLX: 0.685
       a =  4.000      CL =  1.5024
      Cm = -0.2806     CD =  0.01631   =>   CDf =  0.00624    CDp =  0.01008

 Side 1  free  transition at x/c =  0.6960   67
 Side 2  free  transition at x/c =  0.6167   48

   2   rms: 0.5802E-01   max: 0.3222E+00   T at   67  1
       a =  4.000      CL =  1.4983
      Cm = -0.2740     CD =  0.01757   =>   CDf =  0.00595    CDp =  0.01162

 Side 1  free  transition at x/c =  0.6845   67
 Side 2  free  transition at x/c =  0.6281   48

   3   rms: 0.6598E-01   max: 0.4081E+00   T at    2  1
       a =  4.000      CL =  1.5424
      Cm = -0.2818     CD =  0.01629   =>   CDf =  0.00616    CDp =  0.01012

 MRCHDU: Convergence failed at  69  side 1    Res =  0.5378E+01
 MRCHDU: Convergence failed at  70  side 1    Res =  0.3081E+01
 MRCHDU: Convergence failed at  71  side 1    Res =  0.1833E+01
 MRCHDU: Convergence failed at  72  side 1    Res =  0.2193E+01
 MRCHDU: Convergence failed at  73  side 1    Res =  0.3022E+01
 MRCHDU: Convergence failed at  74  side 1    Res =  0.4053E+01
 MRCHDU: Convergence failed at  75  side 1    Res =  0.5473E+01
 MRCHDU: Convergence failed at  76  side 1    Res =  0.7351E+01
 MRCHDU: Convergence failed at  77  side 1    Res =  0.9601E+01
 MRCHDU: Convergence failed at  78  side 1    Res =  0.1172E+02
 MRCHDU: Convergence failed at  79  side 1    Res =  0.1293E+02
 MRCHDU: Convergence failed at  80  side 1    Res =  0.1267E+02
 MRCHDU: Convergence failed at  81  side 1    Res =  0.1117E+02
 MRCHDU: Convergence failed at  82  side 1    Res =  0.9234E+01
 MRCHDU: Convergence failed at  83  side 1    Res =  0.2455E+02
 MRCHDU: Convergence failed at  84  side 1    Res =  0.2051E+02
 MRCHDU: Convergence failed at  85  side 1    Res =  0.2586E+02
 MRCHDU: Convergence failed at  86  side 1    Res =  0.3021E+02
 MRCHDU: Convergence failed at  87  side 1    Res =  0.1849E+02
 MRCHDU: Convergence failed at  88  side 1    Res =  0.1387E+02
 MRCHDU: Convergence failed at  89  side 1    Res =  0.1059E+02
 Side 1  free  transition at x/c =  0.6962   68
 Side 2  free  transition at x/c =  0.6299   48

   4   rms: 0.6111E+00   max: 0.2937E+01   D at   89  1   RLX: 0.511
       a =  4.000      CL =  1.6546
      Cm = -0.3617     CD =  0.00646   =>   CDf =  0.00523    CDp =  0.00122

 Side 1  free  transition at x/c =  0.6864   68
 Side 2  free  transition at x/c =  0.6296   48

   5   rms: 0.2299E+00   max: 0.8073E+00   D at   74  2
       a =  4.000      CL =  1.6018
      Cm = -0.2944     CD =  0.01154   =>   CDf =  0.00744    CDp =  0.00410

 Side 1  free  transition at x/c =  0.6932   68
 Side 2  free  transition at x/c =  0.6337   48

   6   rms: 0.7765E-01   max: -.3715E+00   D at   89  1
       a =  4.000      CL =  1.5207
      Cm = -0.2785     CD =  0.01710   =>   CDf =  0.00595    CDp =  0.01116

 Side 1  free  transition at x/c =  0.6860   68
 Side 2  free  transition at x/c =  0.6281   48

   7   rms: 0.2026E-01   max: -.1586E+00   D at   69  1
       a =  4.000      CL =  1.5194
      Cm = -0.2778     CD =  0.01681   =>   CDf =  0.00611    CDp =  0.01070

 Side 1  free  transition at x/c =  0.6880   68
 Side 2  free  transition at x/c =  0.6284   48

   8   rms: 0.1265E-02   max: -.1114E-01   D at   68  1
       a =  4.000      CL =  1.5192
      Cm = -0.2778     CD =  0.01683   =>   CDf =  0.00607    CDp =  0.01075

 Side 1  free  transition at x/c =  0.6880   68
 Side 2  free  transition at x/c =  0.6284   48

   9   rms: 0.1089E-04   max: 0.7114E-04   D at   49  2
       a =  4.000      CL =  1.5193
      Cm = -0.2778     CD =  0.01683   =>   CDf =  0.00608    CDp =  0.01075

 Point added to stored polar  1
 Point written to save file  000170M0.04.log                                 
 Dump file unspecified or not available
 Calculating wake trajectory ...
 Calculating source influence matrix ...

 Solving BL system ...

 Side 1  free  transition at x/c =  0.6880   68
 Side 2  free  transition at x/c =  0.6284   48

   1   rms: 0.1648E+00   max: -.7191E+00   T at   48  2   RLX: 0.695
       a =  5.000      CL =  1.6038
      Cm = -0.2800     CD =  0.01699   =>   CDf =  0.00585    CDp =  0.01114

 Side 1  free  transition at x/c =  0.6728   68
 Side 2  free  transition at x/c =  0.6505   48

   2   rms: 0.7091E-01   max: -.4377E+00   D at   68  1
       a =  5.000      CL =  1.6222
      Cm = -0.2769     CD =  0.01691   =>   CDf =  0.00584    CDp =  0.01107

 Side 1  free  transition at x/c =  0.6680   67
 Side 2  free  transition at x/c =  0.6660   49

   3   rms: 0.1804E-01   max: 0.1893E+00   D at   50  2
       a =  5.000      CL =  1.6261
      Cm = -0.2776     CD =  0.01683   =>   CDf =  0.00586    CDp =  0.01097

 Side 1  free  transition at x/c =  0.6678   67
 Side 2  free  transition at x/c =  0.6639   49

   4   rms: 0.2278E-02   max: 0.2810E-01   D at   50  2
       a =  5.000      CL =  1.6256
      Cm = -0.2775     CD =  0.01684   =>   CDf =  0.00584    CDp =  0.01100

 Side 1  free  transition at x/c =  0.6677   67
 Side 2  free  transition at x/c =  0.6630   49

   5   rms: 0.6464E-04   max: -.6835E-03   D at   50  2
       a =  5.000      CL =  1.6256
      Cm = -0.2775     CD =  0.01684   =>   CDf =  0.00584    CDp =  0.01100

 Point added to stored polar  1
 Point written to save file  000170M0.04.log                                 
 Dump file unspecified or not available
 Calculating wake trajectory ...
 Calculating source influence matrix ...

 Solving BL system ...

 Side 1  free  transition at x/c =  0.6677   67
 Side 2  free  transition at x/c =  0.6630   49

   1   rms: 0.1531E+00   max: 0.8103E+00   T at   67  1   RLX: 0.805
       a =  6.000      CL =  1.6625
      Cm = -0.2684     CD =  0.01804   =>   CDf =  0.00559    CDp =  0.01245

 Side 1  free  transition at x/c =  0.6395   66
 Side 2  free  transition at x/c =  0.6892   50

   2   rms: 0.9773E-01   max: -.5435E+00   D at   67  1   RLX: 0.920
       a =  6.000      CL =  1.7281
      Cm = -0.2766     CD =  0.01670   =>   CDf =  0.00572    CDp =  0.01098

 Side 1  free  transition at x/c =  0.6400   67
 Side 2  free  transition at x/c =  0.6985   50

   3   rms: 0.2130E-01   max: -.1880E+00   D at   51  2
       a =  6.000      CL =  1.7211
      Cm = -0.2749     CD =  0.01680   =>   CDf =  0.00561    CDp =  0.01119

 Side 1  free  transition at x/c =  0.6395   66
 Side 2  free  transition at x/c =  0.7022   50

   4   rms: 0.5847E-02   max: -.7374E-01   C at   50  2
       a =  6.000      CL =  1.7198
      Cm = -0.2747     CD =  0.01683   =>   CDf =  0.00562    CDp =  0.01121

 Side 1  free  transition at x/c =  0.6394   66
 Side 2  free  transition at x/c =  0.7019   50

   5   rms: 0.2845E-03   max: 0.3518E-02   D at   51  2
       a =  6.000      CL =  1.7197
      Cm = -0.2746     CD =  0.01683   =>   CDf =  0.00560    CDp =  0.01123

 Side 1  free  transition at x/c =  0.6394   66
 Side 2  free  transition at x/c =  0.7018   50

   6   rms: 0.1104E-05   max: -.6874E-05   D at   91  1
       a =  6.000      CL =  1.7197
      Cm = -0.2746     CD =  0.01683   =>   CDf =  0.00560    CDp =  0.01123

 Point added to stored polar  1
 Point written to save file  000170M0.04.log                                 
 Dump file unspecified or not available
 Calculating wake trajectory ...
 Calculating source influence matrix ...

 Solving BL system ...

 Side 1  free  transition at x/c =  0.6394   66
 Side 2  free  transition at x/c =  0.7018   50

   1   rms: 0.1651E+00   max: -.7719E+00   C at   66  1   RLX: 0.648
       a =  7.000      CL =  1.7294
      Cm = -0.2637     CD =  0.01835   =>   CDf =  0.00532    CDp =  0.01303

 MRCHDU: Convergence failed at  52  side 2    Res =  0.4761E+01
 MRCHDU: Convergence failed at  53  side 2    Res =  0.3012E+01
 MRCHDU: Convergence failed at  54  side 2    Res =  0.4399E+01
 MRCHDU: Convergence failed at  55  side 2    Res =  0.7925E+01
 MRCHDU: Convergence failed at  56  side 2    Res =  0.1610E+02
 MRCHDU: Convergence failed at  57  side 2    Res =  0.2907E+02
 MRCHDU: Convergence failed at  58  side 2    Res =  0.3675E+02
 MRCHDU: Convergence failed at  59  side 2    Res =  0.2751E+02
 MRCHDU: Convergence failed at  60  side 2    Res =  0.1573E+02
 MRCHDU: Convergence failed at  61  side 2    Res =  0.8912E+01
 Side 1  free  transition at x/c =  0.6099   66
 Side 2  free  transition at x/c =  0.7352   52

   2   rms: 0.1655E+00   max: -.7963E+00   D at   61  2   RLX: 0.628
       a =  7.000      CL =  1.7682
      Cm = -0.2637     CD =  0.01824   =>   CDf =  0.00515    CDp =  0.01309

 Side 1  free  transition at x/c =  0.6018   65
 Side 2  free  transition at x/c =  0.7455   52

   3   rms: 0.4089E-01   max: -.4593E+00   D at   54  2
       a =  7.000      CL =  1.7608
      Cm = -0.2615     CD =  0.01783   =>   CDf =  0.00532    CDp =  0.01251

 Side 1  free  transition at x/c =  0.6005   65
 Side 2  free  transition at x/c =  0.7438   52

   4   rms: 0.7184E-02   max: 0.7214E-01   D at   55  2
       a =  7.000      CL =  1.7645
      Cm = -0.2625     CD =  0.01796   =>   CDf =  0.00515    CDp =  0.01281

 Side 1  free  transition at x/c =  0.5991   65
 Side 2  free  transition at x/c =  0.7435   52

   5   rms: 0.4711E-03   max: -.2508E-02   D at   65  1
       a =  7.000      CL =  1.7647
      Cm = -0.2625     CD =  0.01796   =>   CDf =  0.00517    CDp =  0.01279

 Side 1  free  transition at x/c =  0.5991   65
 Side 2  free  transition at x/c =  0.7435   52

   6   rms: 0.1621E-04   max: -.6034E-04   D at   86  1
       a =  7.000      CL =  1.7647
      Cm = -0.2625     CD =  0.01796   =>   CDf =  0.00517    CDp =  0.01279

 Point added to stored polar  1
 Point written to save file  000170M0.04.log                                 
 Dump file unspecified or not available
 Calculating wake trajectory ...
 Calculating source influence matrix ...

 Solving BL system ...

 Side 1  free  transition at x/c =  0.5991   65
 Side 2  free  transition at x/c =  0.7435   52

   1   rms: 0.1666E+00   max: -.8278E+00   D at   66  1   RLX: 0.604
       a =  8.000      CL =  1.7906
      Cm = -0.2551     CD =  0.01881   =>   CDf =  0.00487    CDp =  0.01394

 Side 1  free  transition at x/c =  0.5580   63
 Side 2  free  transition at x/c =  0.7767   53

   2   rms: 0.9462E-01   max: -.5109E+00   C at   53  2   RLX: 0.979
       a =  8.000      CL =  1.7659
      Cm = -0.2445     CD =  0.02183   =>   CDf =  0.00507    CDp =  0.01676

 Side 1  free  transition at x/c =  0.5189   61
 Side 2  free  transition at x/c =  0.7917   54

   3   rms: 0.2833E-01   max: -.2233E+00   D at   55  2
       a =  8.000      CL =  1.7638
      Cm = -0.2443     CD =  0.02232   =>   CDf =  0.00514    CDp =  0.01718

 Side 1  free  transition at x/c =  0.5134   60
 Side 2  free  transition at x/c =  0.8026   55

   4   rms: 0.4266E-02   max: -.7370E-01   D at   54  2
       a =  8.000      CL =  1.7633
      Cm = -0.2442     CD =  0.02229   =>   CDf =  0.00506    CDp =  0.01724

 Side 1  free  transition at x/c =  0.5123   60
 Side 2  free  transition at x/c =  0.8015   55

   5   rms: 0.5233E-03   max: 0.8052E-02   C at   55  2
       a =  8.000      CL =  1.7633
      Cm = -0.2442     CD =  0.02229   =>   CDf =  0.00507    CDp =  0.01722

 Side 1  free  transition at x/c =  0.5123   60
 Side 2  free  transition at x/c =  0.8012   55

   6   rms: 0.4015E-05   max: -.2726E-04   D at   58  2
       a =  8.000      CL =  1.7633
      Cm = -0.2442     CD =  0.02229   =>   CDf =  0.00507    CDp =  0.01722

 Point added to stored polar  1
 Point written to save file  000170M0.04.log                                 
 Dump file unspecified or not available
 Calculating wake trajectory ...
 Calculating source influence matrix ...

 Solving BL system ...

 Side 1  free  transition at x/c =  0.5123   60
 Side 2  free  transition at x/c =  0.8012   55

   1   rms: 0.2654E+00   max: 0.2608E+01   C at   60  1   RLX: 0.357
       a =  9.000      CL =  1.7433
      Cm = -0.2354     CD =  0.02547   =>   CDf =  0.00508    CDp =  0.02040

 MRCHDU: Convergence failed at  81  side 1    Res =  0.1993E+01
 MRCHDU: Convergence failed at  82  side 1    Res =  0.1847E+02
 MRCHDU: Convergence failed at  83  side 1    Res =  0.1520E+01
 Side 1  free  transition at x/c =  0.2171   40
 Side 2  free  transition at x/c =  0.8256   57

   2   rms: 0.3243E+00   max: 0.4756E+01   C at   40  1   RLX: 0.315
       a =  9.000      CL =  1.7327
      Cm = -0.2444     CD =  0.02978   =>   CDf =  0.00732    CDp =  0.02246

 Side 1  free  transition at x/c =  0.1889   38
 Side 2  free  transition at x/c =  0.8397   57

   3   rms: 0.2799E+00   max: -.4996E+01   C at   38  1   RLX: 0.100
       a =  9.000      CL =  1.7227
      Cm = -0.2411     CD =  0.03130   =>   CDf =  0.00735    CDp =  0.02395

 Side 1  free  transition at x/c =  0.1996   39
 Side 2  free  transition at x/c =  0.8442   58

   4   rms: 0.2592E+00   max: -.4169E+01   C at   39  1   RLX: 0.120
       a =  9.000      CL =  1.7125
      Cm = -0.2378     CD =  0.03216   =>   CDf =  0.00721    CDp =  0.02494

 Side 1  free  transition at x/c =  0.2108   40
 Side 2  free  transition at x/c =  0.8511   58

   5   rms: 0.3159E+00   max: -.4245E+01   C at   58  2   RLX: 0.118
       a =  9.000      CL =  1.7038
      Cm = -0.2349     CD =  0.03279   =>   CDf =  0.00705    CDp =  0.02575

 Side 1  free  transition at x/c =  0.2209   41
 Side 2  free  transition at x/c =  0.8537   58

   6   rms: 0.1359E+00   max: -.2176E+01   C at   41  1   RLX: 0.230
       a =  9.000      CL =  1.6891
      Cm = -0.2305     CD =  0.03432   =>   CDf =  0.00696    CDp =  0.02736

 Side 1  free  transition at x/c =  0.2355   42
 Side 2  free  transition at x/c =  0.8713   60

   7   rms: 0.2722E+00   max: -.4255E+01   C at   60  2   RLX: 0.117
       a =  9.000      CL =  1.6836
      Cm = -0.2286     CD =  0.03459   =>   CDf =  0.00676    CDp =  0.02783

 Side 1  free  transition at x/c =  0.2437   42
 Side 2  free  transition at x/c =  0.8844   60

   8   rms: 0.2264E+01   max: -.2867E+02   C at   60  2   RLX: 0.017
       a =  9.000      CL =  1.6827
      Cm = -0.2281     CD =  0.03441   =>   CDf =  0.00660    CDp =  0.02780

 Side 1  free  transition at x/c =  0.2468   42
 Side 2  free  transition at x/c =  0.8843   60

   9   rms: 0.3037E+00   max: -.4617E+01   C at   60  2   RLX: 0.108
       a =  9.000      CL =  1.6786
      Cm = -0.2268     CD =  0.03487   =>   CDf =  0.00662    CDp =  0.02825

 Side 1  free  transition at x/c =  0.2533   43
 Side 2  free  transition at x/c =  0.8990   61

  10   rms: 0.2391E+01   max: -.2791E+02   C at   61  2   RLX: 0.018
       a =  9.000      CL =  1.6778
      Cm = -0.2265     CD =  0.03476   =>   CDf =  0.00651    CDp =  0.02825

 Side 1  free  transition at x/c =  0.2547   43
 Side 2  free  transition at x/c =  0.9214   63

  11   rms: 0.6064E+01   max: -.7041E+02   C at   63  2   RLX: 0.007
       a =  9.000      CL =  1.6778
      Cm = -0.2266     CD =  0.03472   =>   CDf =  0.00649    CDp =  0.02823

 Side 1  free  transition at x/c =  0.2557   43
 Side 2  free  transition at x/c =  0.9343   64

  12   rms: 0.7361E+01   max: -.8808E+02   C at   64  2   RLX: 0.006
       a =  9.000      CL =  1.6776
      Cm = -0.2265     CD =  0.03471   =>   CDf =  0.00648    CDp =  0.02823

 Side 1  free  transition at x/c =  0.2564   43
 Side 2  free  transition at x/c =  0.9471   65

  13   rms: 0.9164E+01   max: -.1163E+03   C at   65  2   RLX: 0.004
       a =  9.000      CL =  1.6775
      Cm = -0.2264     CD =  0.03471   =>   CDf =  0.00647    CDp =  0.02823

 Side 1  free  transition at x/c =  0.2569   43
 Side 2  free  transition at x/c =  0.9590   66

  14   rms: 0.1108E+02   max: -.1540E+03   C at   66  2   RLX: 0.003
       a =  9.000      CL =  1.6773
      Cm = -0.2264     CD =  0.03470   =>   CDf =  0.00647    CDp =  0.02824

 Side 1  free  transition at x/c =  0.2573   43
 Side 2  free  transition at x/c =  0.9700   67

  15   rms: 0.1235E+02   max: -.1956E+03   C at   67  2   RLX: 0.003
       a =  9.000      CL =  1.6772
      Cm = -0.2263     CD =  0.03470   =>   CDf =  0.00646    CDp =  0.02824

 Side 1  free  transition at x/c =  0.2576   43
 Side 2  free  transition at x/c =  0.9799   67

  16   rms: 0.1950E+02   max: -.3081E+03   C at   67  2   RLX: 0.002
       a =  9.000      CL =  1.6772
      Cm = -0.2263     CD =  0.03469   =>   CDf =  0.00646    CDp =  0.02823

 Side 1  free  transition at x/c =  0.2579   43
 Side 2  free  transition at x/c =  0.9889   68

  17   rms: 0.1376E+02   max: -.2647E+03   C at   68  2   RLX: 0.002
       a =  9.000      CL =  1.6771
      Cm = -0.2263     CD =  0.03469   =>   CDf =  0.00646    CDp =  0.02823

 Side 1  free  transition at x/c =  0.2581   43
 Side 2  free  transition at x/c =  0.9975   69

  18   rms: 0.8712E+01   max: -.2363E+03   C at   69  2   RLX: 0.002
       a =  9.000      CL =  1.6770
      Cm = -0.2262     CD =  0.03471   =>   CDf =  0.00646    CDp =  0.02825

 Side 1  free  transition at x/c =  0.2579   43
 Side 2  free  transition at x/c =  0.9983   69

  19   rms: 0.4737E+01   max: -.1284E+03   C at   69  2   RLX: 0.004
       a =  9.000      CL =  1.6769
      Cm = -0.2262     CD =  0.03475   =>   CDf =  0.00646    CDp =  0.02830

 Side 1  free  transition at x/c =  0.2577   43
 Side 2  free  transition at x/c =  0.9990   69

  20   rms: 0.3030E+01   max: -.8200E+02   C at   69  2   RLX: 0.006
       a =  9.000      CL =  1.6766
      Cm = -0.2262     CD =  0.03482   =>   CDf =  0.00646    CDp =  0.02836

 Side 1  free  transition at x/c =  0.2571   43
 Side 2  free  transition at x/c =  0.9997   69

  21   rms: 0.1965E+01   max: -.5299E+02   C at   69  2   RLX: 0.009
       a =  9.000      CL =  1.6762
      Cm = -0.2261     CD =  0.03493   =>   CDf =  0.00646    CDp =  0.02847

 Side 1  free  transition at x/c =  0.2563   43
 Side 2 forced transition at x/c =  1.0001   69

  22   rms: 0.8166E-01   max: -.1154E+01   C at   43  1   RLX: 0.433
       a =  9.000      CL =  1.6607
      Cm = -0.2212     CD =  0.03652   =>   CDf =  0.00646    CDp =  0.03006

 Side 1  free  transition at x/c =  0.2695   44
 Side 2 forced transition at x/c =  1.0001   69

  23   rms: 0.3968E-01   max: -.6134E+00   C at   44  1   RLX: 0.815
       a =  9.000      CL =  1.6439
      Cm = -0.2157     CD =  0.03812   =>   CDf =  0.00632    CDp =  0.03180

 Side 1  free  transition at x/c =  0.2834   45
 Side 2 forced transition at x/c =  1.0001   69

  24   rms: 0.6127E-02   max: -.8285E-01   C at   45  1
       a =  9.000      CL =  1.6402
      Cm = -0.2144     CD =  0.03841   =>   CDf =  0.00616    CDp =  0.03225

 Side 1  free  transition at x/c =  0.2861   45
 Side 2 forced transition at x/c =  1.0001   69

  25   rms: 0.1927E-03   max: -.2690E-02   C at   45  1
       a =  9.000      CL =  1.6402
      Cm = -0.2144     CD =  0.03838   =>   CDf =  0.00613    CDp =  0.03225
 VISCAL:  Convergence failed
 Calculating wake trajectory ...
 Calculating source influence matrix ...

 Solving BL system ...

 Side 1  free  transition at x/c =  0.2862   45
 Side 2 forced transition at x/c =  1.0001   69

   1   rms: 0.6610E+00   max: 0.1204E+02   C at   45  1   RLX: 0.125
       a = 10.000      CL =  1.6216
      Cm = -0.2113     CD =  0.04156   =>   CDf =  0.00614    CDp =  0.03542

 Side 1  free  transition at x/c =  0.2512   43
 Side 2 forced transition at x/c =  1.0001   69

   2   rms: 0.5226E+00   max: 0.9723E+01   C at   43  1   RLX: 0.154
       a = 10.000      CL =  1.6020
      Cm = -0.2081     CD =  0.04476   =>   CDf =  0.00634    CDp =  0.03842

 Side 1  free  transition at x/c =  0.2186   40
 Side 2 forced transition at x/c =  1.0001   69

   3   rms: 0.6177E+00   max: 0.1161E+02   C at   40  1   RLX: 0.129
       a = 10.000      CL =  1.5877
      Cm = -0.2055     CD =  0.04697   =>   CDf =  0.00650    CDp =  0.04047

 Side 1  free  transition at x/c =  0.1920   39
 Side 2 forced transition at x/c =  1.0001   69

   4   rms: 0.4350E+00   max: 0.8717E+01   C at   39  1   RLX: 0.172
       a = 10.000      CL =  1.5724
      Cm = -0.2030     CD =  0.04971   =>   CDf =  0.00664    CDp =  0.04307

 Side 1  free  transition at x/c =  0.1651   37
 Side 2 forced transition at x/c =  1.0001   69

   5   rms: 0.3565E+00   max: 0.7284E+01   C at   37  1   RLX: 0.206
       a = 10.000      CL =  1.5585
      Cm = -0.2006     CD =  0.05226   =>   CDf =  0.00678    CDp =  0.04547

 Side 1  free  transition at x/c =  0.1439   35
 Side 2 forced transition at x/c =  1.0001   69

   6   rms: 0.3365E+00   max: 0.7075E+01   C at   35  1   RLX: 0.212
       a = 10.000      CL =  1.5489
      Cm = -0.1986     CD =  0.05408   =>   CDf =  0.00689    CDp =  0.04719

 Side 1  free  transition at x/c =  0.1245   34
 Side 2 forced transition at x/c =  1.0001   69

   7   rms: 0.1947E+00   max: 0.4127E+01   C at   34  1   RLX: 0.363
       a = 10.000      CL =  1.5409
      Cm = -0.1972     CD =  0.05652   =>   CDf =  0.00700    CDp =  0.04952

 Side 1  free  transition at x/c =  0.1048   32
 Side 2 forced transition at x/c =  1.0001   69

   8   rms: 0.9890E-01   max: 0.2130E+01   C at   32  1   RLX: 0.704
       a = 10.000      CL =  1.5417
      Cm = -0.1966     CD =  0.05858   =>   CDf =  0.00714    CDp =  0.05145

 Side 1  free  transition at x/c =  0.0860   31
 Side 2 forced transition at x/c =  1.0001   69

   9   rms: 0.1376E-01   max: -.1372E+00   D at   31  1
       a = 10.000      CL =  1.5442
      Cm = -0.1967     CD =  0.05912   =>   CDf =  0.00726    CDp =  0.05186

 Side 1  free  transition at x/c =  0.0815   31
 Side 2 forced transition at x/c =  1.0001   69

  10   rms: 0.1839E-02   max: -.1713E-01   C at   31  1
       a = 10.000      CL =  1.5431
      Cm = -0.1966     CD =  0.05911   =>   CDf =  0.00731    CDp =  0.05180

 Side 1  free  transition at x/c =  0.0820   31
 Side 2 forced transition at x/c =  1.0001   69

  11   rms: 0.4661E-04   max: 0.4864E-03   D at   83  2
       a = 10.000      CL =  1.5431
      Cm = -0.1966     CD =  0.05910   =>   CDf =  0.00730    CDp =  0.05180

 Point added to stored polar  1
 Point written to save file  000170M0.04.log                                 
 Dump file unspecified or not available
 Calculating wake trajectory ...
 Calculating source influence matrix ...

 Solving BL system ...

 Side 1  free  transition at x/c =  0.0820   31
 Side 2 forced transition at x/c =  1.0001   69

   1   rms: 0.2079E+00   max: 0.1950E+01   C at   31  1   RLX: 0.359
       a = 11.000      CL =  1.5353
      Cm = -0.1935     CD =  0.06505   =>   CDf =  0.00731    CDp =  0.05774

 Side 1  free  transition at x/c =  0.0695   30
 Side 2 forced transition at x/c =  1.0001   69

   2   rms: 0.1137E+00   max: -.6819E+00   D at   31  1   RLX: 0.733
       a = 11.000      CL =  1.5337
      Cm = -0.1897     CD =  0.07114   =>   CDf =  0.00732    CDp =  0.06383

 Side 1  free  transition at x/c =  0.0589   29
 Side 2 forced transition at x/c =  1.0001   69

   3   rms: 0.5608E-01   max: -.6460E+00   D at   29  1   RLX: 0.774
       a = 11.000      CL =  1.5450
      Cm = -0.1909     CD =  0.07081   =>   CDf =  0.00684    CDp =  0.06397

 Side 1  free  transition at x/c =  0.0571   30
 Side 2 forced transition at x/c =  1.0001   68

   4   rms: 0.1211E-01   max: -.1851E+00   D at   30  1
       a = 11.000      CL =  1.5386
      Cm = -0.1891     CD =  0.07207   =>   CDf =  0.00720    CDp =  0.06487

 Side 1  free  transition at x/c =  0.0558   30
 Side 2 forced transition at x/c =  1.0001   68

   5   rms: 0.2992E-02   max: -.2527E-01   D at   30  1
       a = 11.000      CL =  1.5365
      Cm = -0.1889     CD =  0.07224   =>   CDf =  0.00722    CDp =  0.06502

 Side 1  free  transition at x/c =  0.0556   29
 Side 2 forced transition at x/c =  1.0001   68

   6   rms: 0.5773E-03   max: -.6455E-02   D at   29  1
       a = 11.000      CL =  1.5367
      Cm = -0.1889     CD =  0.07218   =>   CDf =  0.00723    CDp =  0.06495

 Side 1  free  transition at x/c =  0.0556   29
 Side 2 forced transition at x/c =  1.0001   68

   7   rms: 0.4545E-04   max: -.1981E-03   C at   29  1
       a = 11.000      CL =  1.5367
      Cm = -0.1889     CD =  0.07218   =>   CDf =  0.00723    CDp =  0.06494

 Point added to stored polar  1
 Point written to save file  000170M0.04.log                                 
 Dump file unspecified or not available
 Calculating wake trajectory ...
 Calculating source influence matrix ...

 Solving BL system ...

 Side 1  free  transition at x/c =  0.0556   29
 Side 2 forced transition at x/c =  1.0001   68

   1   rms: 0.1383E+00   max: -.1090E+01   C at   29  1   RLX: 0.459
       a = 12.000      CL =  1.5576
      Cm = -0.1874     CD =  0.07603   =>   CDf =  0.00725    CDp =  0.06878

 Side 1  free  transition at x/c =  0.0496   29
 Side 2 forced transition at x/c =  1.0001   68

   2   rms: 0.6919E-01   max: 0.3701E+00   T at   29  1
       a = 12.000      CL =  1.5573
      Cm = -0.1842     CD =  0.08367   =>   CDf =  0.00714    CDp =  0.07653

 Side 1  free  transition at x/c =  0.0451   28
 Side 2 forced transition at x/c =  1.0001   68

   3   rms: 0.2042E-01   max: -.1357E+00   D at   29  1
       a = 12.000      CL =  1.5440
      Cm = -0.1832     CD =  0.08414   =>   CDf =  0.00705    CDp =  0.07709

 Side 1  free  transition at x/c =  0.0452   28
 Side 2 forced transition at x/c =  1.0001   68

   4   rms: 0.2099E-02   max: -.1279E-01   D at   68  1
       a = 12.000      CL =  1.5451
      Cm = -0.1831     CD =  0.08375   =>   CDf =  0.00700    CDp =  0.07675

 Side 1  free  transition at x/c =  0.0451   28
 Side 2 forced transition at x/c =  1.0001   68

   5   rms: 0.3109E-03   max: -.1569E-02   D at   83  2
       a = 12.000      CL =  1.5454
      Cm = -0.1832     CD =  0.08378   =>   CDf =  0.00700    CDp =  0.07677

 Side 1  free  transition at x/c =  0.0451   28
 Side 2 forced transition at x/c =  1.0001   68

   6   rms: 0.2006E-04   max: -.1453E-03   D at   84  2
       a = 12.000      CL =  1.5454
      Cm = -0.1832     CD =  0.08378   =>   CDf =  0.00700    CDp =  0.07677

 Point added to stored polar  1
 Point written to save file  000170M0.04.log                                 
 Dump file unspecified or not available
 Calculating wake trajectory ...
 Calculating source influence matrix ...

 Solving BL system ...

 Side 1  free  transition at x/c =  0.0451   28
 Side 2 forced transition at x/c =  1.0001   68

   1   rms: 0.1261E+00   max: 0.8310E+00   T at   28  1   RLX: 0.433
       a = 13.000      CL =  1.5633
      Cm = -0.1819     CD =  0.08776   =>   CDf =  0.00702    CDp =  0.08074

 Side 1  free  transition at x/c =  0.0408   28
 Side 2 forced transition at x/c =  1.0001   68

   2   rms: 0.6707E-01   max: 0.3951E+00   T at   28  1
       a = 13.000      CL =  1.5761
      Cm = -0.1797     CD =  0.09391   =>   CDf =  0.00650    CDp =  0.08741

 Side 1  free  transition at x/c =  0.0369   28
 Side 2 forced transition at x/c =  1.0001   67

   3   rms: 0.1654E-01   max: -.9828E-01   D at   30  1
       a = 13.000      CL =  1.5632
      Cm = -0.1784     CD =  0.09397   =>   CDf =  0.00686    CDp =  0.08711

 Side 1  free  transition at x/c =  0.0370   28
 Side 2 forced transition at x/c =  1.0001   67

   4   rms: 0.1831E-02   max: -.9915E-02   D at    4  1
       a = 13.000      CL =  1.5644
      Cm = -0.1784     CD =  0.09381   =>   CDf =  0.00684    CDp =  0.08697

 Side 1  free  transition at x/c =  0.0369   28
 Side 2 forced transition at x/c =  1.0001   67

   5   rms: 0.1982E-03   max: -.1131E-02   D at   83  2
       a = 13.000      CL =  1.5645
      Cm = -0.1784     CD =  0.09384   =>   CDf =  0.00684    CDp =  0.08700

 Side 1  free  transition at x/c =  0.0369   28
 Side 2 forced transition at x/c =  1.0001   67

   6   rms: 0.1389E-04   max: 0.1233E-03   C at   67  2
       a = 13.000      CL =  1.5645
      Cm = -0.1784     CD =  0.09384   =>   CDf =  0.00684    CDp =  0.08700

 Point added to stored polar  1
 Point written to save file  000170M0.04.log                                 
 Dump file unspecified or not available
 Calculating wake trajectory ...
 Calculating source influence matrix ...

 Solving BL system ...

 Side 1  free  transition at x/c =  0.0369   28
 Side 2 forced transition at x/c =  1.0001   67

   1   rms: 0.1281E+00   max: 0.9778E+00   T at   28  1   RLX: 0.403
       a = 14.000      CL =  1.5841
      Cm = -0.1779     CD =  0.09735   =>   CDf =  0.00686    CDp =  0.09050

 Side 1  free  transition at x/c =  0.0339   28
 Side 2 forced transition at x/c =  1.0001   67

   2   rms: 0.6964E-01   max: 0.4380E+00   T at   28  1
       a = 14.000      CL =  1.6039
      Cm = -0.1763     CD =  0.10313   =>   CDf =  0.00671    CDp =  0.09642

 Side 1  free  transition at x/c =  0.0300   27
 Side 2 forced transition at x/c =  1.0001   67

   3   rms: 0.1792E-01   max: -.1060E+00   D at   29  1
       a = 14.000      CL =  1.5921
      Cm = -0.1749     CD =  0.10234   =>   CDf =  0.00670    CDp =  0.09564

 Side 1  free  transition at x/c =  0.0301   28
 Side 2 forced transition at x/c =  1.0001   67

   4   rms: 0.7203E-02   max: 0.2932E-01   D at   28  1
       a = 14.000      CL =  1.5953
      Cm = -0.1750     CD =  0.10224   =>   CDf =  0.00668    CDp =  0.09557

 Side 1  free  transition at x/c =  0.0300   27
 Side 2 forced transition at x/c =  1.0001   67

   5   rms: 0.1004E-02   max: -.9924E-02   D at   27  1
       a = 14.000      CL =  1.5952
      Cm = -0.1750     CD =  0.10235   =>   CDf =  0.00670    CDp =  0.09565

 Side 1  free  transition at x/c =  0.0300   27
 Side 2 forced transition at x/c =  1.0001   67

   6   rms: 0.6738E-04   max: 0.4613E-03   D at   84  2
       a = 14.000      CL =  1.5951
      Cm = -0.1750     CD =  0.10232   =>   CDf =  0.00670    CDp =  0.09562

 Point added to stored polar  1
 Point written to save file  000170M0.04.log                                 
 Dump file unspecified or not available
 Calculating wake trajectory ...
 Calculating source influence matrix ...

 Solving BL system ...

 Side 1  free  transition at x/c =  0.0300   27
 Side 2 forced transition at x/c =  1.0001   67

   1   rms: 0.1208E+00   max: 0.8392E+00   T at   27  1   RLX: 0.377
       a = 15.000      CL =  1.6119
      Cm = -0.1746     CD =  0.10583   =>   CDf =  0.00623    CDp =  0.09959

 Side 1  free  transition at x/c =  0.0286   28
 Side 2 forced transition at x/c =  1.0001   66

   2   rms: 0.7269E-01   max: 0.3730E+00   T at   28  1
       a = 15.000      CL =  1.6369
      Cm = -0.1724     CD =  0.11055   =>   CDf =  0.00652    CDp =  0.10403

 Side 1  free  transition at x/c =  0.0259   28
 Side 2 forced transition at x/c =  1.0001   66

   3   rms: 0.1429E-01   max: -.8534E-01   D at   28  1
       a = 15.000      CL =  1.6301
      Cm = -0.1721     CD =  0.11003   =>   CDf =  0.00635    CDp =  0.10368

 Side 1  free  transition at x/c =  0.0261   28
 Side 2 forced transition at x/c =  1.0001   66

   4   rms: 0.2406E-02   max: -.1095E-01   D at   67  1
       a = 15.000      CL =  1.6318
      Cm = -0.1721     CD =  0.10978   =>   CDf =  0.00634    CDp =  0.10344

 Side 1  free  transition at x/c =  0.0260   28
 Side 2 forced transition at x/c =  1.0001   66

   5   rms: 0.3176E-03   max: -.1933E-02   D at   83  2
       a = 15.000      CL =  1.6320
      Cm = -0.1721     CD =  0.10986   =>   CDf =  0.00635    CDp =  0.10351

 Side 1  free  transition at x/c =  0.0260   28
 Side 2 forced transition at x/c =  1.0001   66

   6   rms: 0.2002E-04   max: -.1402E-03   D at   83  2
       a = 15.000      CL =  1.6321
      Cm = -0.1721     CD =  0.10986   =>   CDf =  0.00635    CDp =  0.10351

 Point added to stored polar  1
 Point written to save file  000170M0.04.log                                 
 Dump file unspecified or not available

.OPERva   c>  
 XFOIL   c>  
0.1
resp: 
 ===================================================
  XFOIL Version 6.97
  Copyright (C) 2000   Mark Drela, Harold Youngren

  This software comes with ABSOLUTELY NO WARRANTY,
    subject to the GNU General Public License.

  Caveat computor
 ===================================================

 File  xfoil.def  not found

   QUIT    Exit program

  .OPER    Direct operating point(s)
  .MDES    Complex mapping design routine
  .QDES    Surface speed design routine
  .GDES    Geometry design routine

   SAVE f  Write airfoil to labeled coordinate file
   PSAV f  Write airfoil to plain coordinate file
   ISAV f  Write airfoil to ISES coordinate file
   MSAV f  Write airfoil to MSES coordinate file
   REVE    Reverse written-airfoil node ordering
   DELI i  Change written-airfoil file delimiters

   LOAD f  Read buffer airfoil from coordinate file
   NACA i  Set NACA 4,5-digit airfoil and buffer airfoil
   INTE    Set buffer airfoil by interpolating two airfoils
   NORM    Buffer airfoil normalization toggle
   HALF    Halve the number of points in buffer airfoil
   XYCM rr Change CM reference location, currently  0.25000 0.00000

   BEND    Display structural properties of current airfoil

   PCOP    Set current-airfoil panel nodes directly from buffer airfoil points
   PANE    Set current-airfoil panel nodes ( 160 ) based on curvature
  .PPAR    Show/change paneling

  .PLOP    Plotting options

   WDEF f  Write  current-settings file
   RDEF f  Reread current-settings file
   NAME s  Specify new airfoil name
   NINC    Increment name version number

   Z       Zoom    | (available in all menus)
   U       Unzoom  | 

 XFOIL   c>   ...............................................

  G raphics-enable flag:        T
  S ize of plot object          10.00"
  A spect ratio of plot object   0.5500
  P age dimensions              11.00 x  8.50"
  M argins from page edges       0.00",  0.00"
  F ont size (relative)          0.0150
  W indow/screen size fraction   0.8000
  B lowup input method:        Cursor    
  O rientation of plot:        Landscape 
  C olor PostScript output?     F

      Option, Value   (or <Return>)    c>   ...............................................

  G raphics-enable flag:        F
  S ize of plot object          10.00"
  A spect ratio of plot object   0.5500
  P age dimensions              11.00 x  8.50"
  M argins from page edges       0.00",  0.00"
  F ont size (relative)          0.0150
  W indow/screen size fraction   0.8000
  B lowup input method:        Cursor    
  O rientation of plot:        Landscape 
  C olor PostScript output?     F

      Option, Value   (or <Return>)    c>  
 XFOIL   c>  
 Labeled airfoil file.  Name:  000170                                          

 Number of input coordinate points: 200
 Clockwise ordering
 Max thickness =     0.156308  at x =   0.346
 Max camber    =     0.079184  at x =   0.563

  LE  x,y  =  -0.00001   0.00046  |   Chord =   0.99989
  TE  x,y  =   0.99988   0.00006  |

 Current airfoil nodes set from buffer airfoil nodes ( 200 )

 XFOIL   c>  
 You are working with the buffer airfoil

.GDES   c>  
  i       x        y      angle
   2   0.9990   0.0005   -0.023
   3   0.9978   0.0010    0.044
   4   0.9961   0.0018    0.017
   5   0.9938   0.0028    0.047
   6   0.9911   0.0041    0.041
   7   0.9880   0.0055    0.047
   8   0.9843   0.0072    0.065
   9   0.9801   0.0090    0.080
  10   0.9755   0.0111    0.072
  11   0.9704   0.0134    0.101
  12   0.9649   0.0159    0.099
  13   0.9589   0.0186    0.122
  14   0.9524   0.0214    0.128
  15   0.9455   0.0245    0.146
  16   0.9382   0.0277    0.167
  17   0.9304   0.0311    0.173
  18   0.9222   0.0346    0.205
  19   0.9135   0.0383    0.209
  20   0.9045   0.0421    0.237
  21   0.8951   0.0460    0.254
  22   0.8853   0.0501    0.281
  23   0.8751   0.0542    0.297
  24   0.8645   0.0584    0.329
  25   0.8536   0.0627    0.348
  26   0.8423   0.0671    0.383
  27   0.8307   0.0715    0.397
  28   0.8187   0.0759    0.434
  29   0.8065   0.0804    0.464
  30   0.7939   0.0848    0.491
  31   0.7810   0.0892    0.519
  32   0.7679   0.0936    0.555
  33   0.7545   0.0979    0.585
  34   0.7409   0.1022    0.616
  35   0.7270   0.1063    0.650
  36   0.7129   0.1104    0.681
  37   0.6986   0.1143    0.718
  38   0.6841   0.1181    0.745
  39   0.6694   0.1217    0.782
  40   0.6545   0.1252    0.807
  41   0.6395   0.1285    0.845
  42   0.6243   0.1315    0.870
  43   0.6091   0.1344    0.903
  44   0.5937   0.1370    0.927
  45   0.5782   0.1394    0.955
  46   0.5627   0.1415    0.973
  47   0.5471   0.1434    1.003
  48   0.5314   0.1450    1.018
  49   0.5157   0.1463    1.035
  50   0.5000   0.1473    1.055
  51   0.4843   0.1481    1.058
  52   0.4686   0.1485    1.076
  53   0.4529   0.1487    1.073
  54   0.4373   0.1486    1.085
  55   0.4218   0.1481    1.076
  56   0.4063   0.1474    1.082
  57   0.3909   0.1464    1.067
  58   0.3757   0.1451    1.066
  59   0.3605   0.1436    1.053
  60   0.3455   0.1418    1.032
  61   0.3306   0.1397    1.024
  62   0.3159   0.1374    1.001
  63   0.3014   0.1348    0.981
  64   0.2871   0.1320    0.959
  65   0.2730   0.1291    0.933
  66   0.2591   0.1259    0.912
  67   0.2455   0.1226    0.887
  68   0.2321   0.1191    0.862
  69   0.2190   0.1154    0.833
  70   0.2061   0.1116    0.816
  71   0.1935   0.1078    0.789
  72   0.1813   0.1038    0.764
  73   0.1693   0.0997    0.751
  74   0.1577   0.0956    0.736
  75   0.1464   0.0915    0.717
  76   0.1355   0.0873    0.707
  77   0.1249   0.0831    0.715
  78   0.1147   0.0789    0.706
  79   0.1049   0.0747    0.723
  80   0.0955   0.0706    0.741
  81   0.0865   0.0665    0.765
  82   0.0778   0.0624    0.816
  83   0.0696   0.0584    0.873
  84   0.0618   0.0544    0.938
  85   0.0545   0.0505    1.035
  86   0.0476   0.0467    1.179
  87   0.0411   0.0430    1.310
  88   0.0351   0.0393    1.511
  89   0.0296   0.0357    1.769
  90   0.0245   0.0322    2.058
  91   0.0199   0.0287    2.456
  92   0.0157   0.0253    2.936
  93   0.0120   0.0220    3.510
  94   0.0089   0.0188    4.266
  95   0.0062   0.0155    5.106
  96   0.0039   0.0124    6.100
  97   0.0022   0.0093    7.194
  98   0.0010   0.0062    8.166
  99   0.0002   0.0031    8.906
 100   0.0000   0.0000   13.334
 101   0.0002  -0.0016   16.028
 102   0.0010  -0.0032   12.882
 103   0.0022  -0.0048    9.739
 104   0.0039  -0.0064    7.225
 105   0.0062  -0.0080    5.465
 106   0.0089  -0.0095    4.257
 107   0.0120  -0.0111    3.347
 108   0.0157  -0.0126    2.744
 109   0.0199  -0.0140    2.295
 110   0.0245  -0.0155    1.928
 111   0.0296  -0.0169    1.687
 112   0.0351  -0.0182    1.481
 113   0.0411  -0.0195    1.324
 114   0.0476  -0.0208    1.212
 115   0.0545  -0.0219    1.099
 116   0.0618  -0.0230    1.025
 117   0.0696  -0.0241    0.964
 118   0.0778  -0.0250    0.906
 119   0.0865  -0.0259    0.864
 120   0.0955  -0.0266    0.824
 121   0.1049  -0.0273    0.803
 122   0.1147  -0.0278    0.762
 123   0.1249  -0.0282    0.745
 124   0.1355  -0.0285    0.725
 125   0.1464  -0.0287    0.694
 126   0.1577  -0.0288    0.688
 127   0.1693  -0.0287    0.654
 128   0.1813  -0.0284    0.649
 129   0.1935  -0.0281    0.614
 130   0.2061  -0.0276    0.605
 131   0.2190  -0.0269    0.577
 132   0.2321  -0.0261    0.561
 133   0.2455  -0.0251    0.526
 134   0.2591  -0.0240    0.511
 135   0.2730  -0.0228    0.475
 136   0.2871  -0.0214    0.452
 137   0.3014  -0.0198    0.418
 138   0.3159  -0.0182    0.390
 139   0.3306  -0.0164    0.356
 140   0.3455  -0.0145    0.318
 141   0.3605  -0.0125    0.284
 142   0.3757  -0.0105    0.244
 143   0.3909  -0.0083    0.207
 144   0.4063  -0.0060    0.168
 145   0.4218  -0.0037    0.125
 146   0.4373  -0.0014    0.081
 147   0.4529   0.0010    0.039
 148   0.4686   0.0034   -0.003
 149   0.4843   0.0058   -0.047
 150   0.5000   0.0082   -0.096
 151   0.5157   0.0105   -0.138
 152   0.5314   0.0129   -0.184
 153   0.5471   0.0151   -0.231
 154   0.5627   0.0173   -0.272
 155   0.5782   0.0194   -0.323
 156   0.5937   0.0214   -0.363
 157   0.6091   0.0233   -0.405
 158   0.6243   0.0251   -0.451
 159   0.6395   0.0268   -0.491
 160   0.6545   0.0283   -0.531
 161   0.6694   0.0296   -0.564
 162   0.6841   0.0308   -0.610
 163   0.6986   0.0318   -0.635
 164   0.7129   0.0326   -0.675
 165   0.7270   0.0333   -0.699
 166   0.7409   0.0338   -0.729
 167   0.7545   0.0341   -0.755
 168   0.7679   0.0342   -0.771
 169   0.7810   0.0341   -0.790
 170   0.7939   0.0339   -0.808
 171   0.8065   0.0335   -0.816
 172   0.8187   0.0329   -0.826
 173   0.8307   0.0322   -0.834
 174   0.8423   0.0313   -0.826
 175   0.8536   0.0303   -0.833
 176   0.8645   0.0291   -0.823
 177   0.8751   0.0279   -0.815
 178   0.8853   0.0265   -0.806
 179   0.8951   0.0250   -0.784
 180   0.9045   0.0235   -0.763
 181   0.9135   0.0219   -0.752
 182   0.9222   0.0203   -0.714
 183   0.9304   0.0186   -0.699
 184   0.9382   0.0169   -0.670
 185   0.9455   0.0153   -0.621
 186   0.9524   0.0136   -0.612
 187   0.9589   0.0120   -0.557
 188   0.9649   0.0104   -0.527
 189   0.9704   0.0089   -0.488
 190   0.9755   0.0075   -0.439
 191   0.9801   0.0062   -0.415
 192   0.9843   0.0049   -0.355
 193   0.9880   0.0038   -0.318
 194   0.9911   0.0028   -0.292
 195   0.9938   0.0020   -0.215
 196   0.9961   0.0013   -0.174
 197   0.9978   0.0007   -0.184
 198   0.9990   0.0003   -0.010
 199   0.9998   0.0001   -0.117

 Maximum panel corner angle = 16.028   at  i,x,y  = 101   0.0002  -0.0016

 Enter corner angle criterion for refinement (deg):   8.014
 Enter type of spline parameter (1=uniform, 2=arclength):   1
 Enter refinement x limits:  -0.10000   1.10000
 Number of points added:           12
 Max thickness =     0.156299  at x =   0.345
 Max camber    =     0.079393  at x =   0.563

 Maximum panel corner angle =  7.450   at  i,x,y  = 107   0.0001  -0.0012

.GDES   c>  
 Buffer airfoil is not identical to current airfoil

 XFOIL   c>  
 Blunt trailing edge.  Gap =  0.00027

 Paneling parameters used...
   Number of panel nodes       160
   Panel bunching parameter    1.000
   TE/LE panel density ratio   0.150
   Refined-area/LE panel density ratio    0.200
   Top    side refined area x/c limits  1.000 1.000
   Bottom side refined area x/c limits  1.000 1.000

 XFOIL   c>  
.OPERi   c>   Current iteration limit:          20

Enter new iteration limit   i>  
Enter new iteration limit   i>  
Enter new iteration limit   i>  
.OPERi   c>  
 M  =    0.0000
 Re =  0.3000E+06

.OPERv   c>  
 Sonic Cp =    -66.86      Sonic Q/Qinf =     9.138


.OPERv   c>  
 Polar  1 newly created for accumulation
 Airfoil archived with polar: 000170                                          

Enter  polar save filename  OR  <return> for no file   s>  
 New polar save file available

Enter  polar dump filename  OR  <return> for no file   s>  
 Polar dump file will NOT be written

 Polar accumulation enabled

.OPERva   c>   Calculating unit vorticity distributions ...
 Calculating wake trajectory ...
 Calculating source influence matrix ...

 Solving BL system ...

 Initializing BL ...
    side            1  ...
 MRCHUE: Inverse mode at  57     Hk =   3.925
 MRCHUE: Inverse mode at  58     Hk =   4.529
 MRCHUE: Inverse mode at  59     Hk =   5.121
 MRCHUE: Inverse mode at  60     Hk =   5.703
 MRCHUE: Inverse mode at  61     Hk =   6.277
 MRCHUE: Inverse mode at  62     Hk =   6.845
 MRCHUE: Inverse mode at  63     Hk =   7.408
 MRCHUE: Inverse mode at  64     Hk =   7.968
 MRCHUE: Inverse mode at  65     Hk =   8.524
 MRCHUE: Inverse mode at  66     Hk =   9.077
 MRCHUE: Inverse mode at  67     Hk =   9.094
 MRCHUE: Inverse mode at  68     Hk =   6.581
 MRCHUE: Inverse mode at  69     Hk =   5.109
 MRCHUE: Inverse mode at  70     Hk =   4.046
 MRCHUE: Inverse mode at  71     Hk =   3.217
 MRCHUE: Inverse mode at  86     Hk =   2.500
 MRCHUE: Inverse mode at  87     Hk =   2.500
    side            2  ...
 MRCHUE: Inverse mode at  35     Hk =   4.035
 MRCHUE: Inverse mode at  36     Hk =   4.617
 MRCHUE: Inverse mode at  37     Hk =   5.181
 MRCHUE: Inverse mode at  38     Hk =   5.732
 MRCHUE: Inverse mode at  39     Hk =   6.272
 MRCHUE: Inverse mode at  40     Hk =   6.801
 MRCHUE: Inverse mode at  41     Hk =   7.320
 MRCHUE: Inverse mode at  42     Hk =   7.828
 MRCHUE: Inverse mode at  43     Hk =   8.325
 MRCHUE: Inverse mode at  44     Hk =   8.814
 MRCHUE: Inverse mode at  45     Hk =   9.295
 MRCHUE: Inverse mode at  46     Hk =   8.109
 MRCHUE: Inverse mode at  47     Hk =   6.347
 MRCHUE: Inverse mode at  48     Hk =   5.148
 MRCHUE: Inverse mode at  49     Hk =   4.234
 MRCHUE: Inverse mode at  50     Hk =   3.501

 Side 1  free  transition at x/c =  0.7132   67
 Side 2  free  transition at x/c =  0.5658   46

   1   rms: 0.1950E+00   max: -.7463E+00   D at   75  2   RLX: 0.670
       a =  2.000      CL =  1.3713
      Cm = -0.2915     CD =  0.01468   =>   CDf =  0.00643    CDp =  0.00825

 Side 1  free  transition at x/c =  0.7151   67
 Side 2  free  transition at x/c =  0.5705   47

   2   rms: 0.7702E-01   max: -.4652E+00   D at   70  1
       a =  2.000      CL =  1.3152
      Cm = -0.2784     CD =  0.01537   =>   CDf =  0.00653    CDp =  0.00884

 Side 1  free  transition at x/c =  0.7139   66
 Side 2  free  transition at x/c =  0.5660   47

   3   rms: 0.2662E-01   max: 0.1565E+00   D at   67  1
       a =  2.000      CL =  1.2983
      Cm = -0.2754     CD =  0.01587   =>   CDf =  0.00656    CDp =  0.00930

 Side 1  free  transition at x/c =  0.7091   66
 Side 2  free  transition at x/c =  0.5638   47

   4   rms: 0.4981E-02   max: -.2665E-01   D at   67  1
       a =  2.000      CL =  1.3030
      Cm = -0.2763     CD =  0.01572   =>   CDf =  0.00655    CDp =  0.00917

 Side 1  free  transition at x/c =  0.7099   66
 Side 2  free  transition at x/c =  0.5642   47

   5   rms: 0.1073E-03   max: -.9165E-03   D at   67  1
       a =  2.000      CL =  1.3030
      Cm = -0.2763     CD =  0.01572   =>   CDf =  0.00655    CDp =  0.00917

 Side 1  free  transition at x/c =  0.7099   66
 Side 2  free  transition at x/c =  0.5642   47

   6   rms: 0.2494E-05   max: -.1162E-04   D at   83  1
       a =  2.000      CL =  1.3030
      Cm = -0.2763     CD =  0.01572   =>   CDf =  0.00655    CDp =  0.00917

 Point added to stored polar  1
 Point written to save file  000170M0.1.log                                  
 Dump file unspecified or not available
 Calculating wake trajectory ...
 Calculating source influence matrix ...

 Solving BL system ...

 Side 1  free  transition at x/c =  0.7099   66
 Side 2  free  transition at x/c =  0.5642   47

   1   rms: 0.1539E+00   max: -.6969E+00   T at   47  2   RLX: 0.717
       a =  3.000      CL =  1.3757
      Cm = -0.2758     CD =  0.01632   =>   CDf =  0.00639    CDp =  0.00993

 Side 1  free  transition at x/c =  0.7004   67
 Side 2  free  transition at x/c =  0.5829   47

   2   rms: 0.6071E-01   max: -.3148E+00   T at   47  2
       a =  3.000      CL =  1.4229
      Cm = -0.2791     CD =  0.01612   =>   CDf =  0.00650    CDp =  0.00962

 Side 1  free  transition at x/c =  0.6999   66
 Side 2  free  transition at x/c =  0.5962   48

   3   rms: 0.4363E-02   max: -.4360E-01   D at   47  2
       a =  3.000      CL =  1.4205
      Cm = -0.2786     CD =  0.01619   =>   CDf =  0.00644    CDp =  0.00975

 Side 1  free  transition at x/c =  0.6994   66
 Side 2  free  transition at x/c =  0.5958   48

   4   rms: 0.2058E-03   max: 0.2176E-02   D at   49  2
       a =  3.000      CL =  1.4205
      Cm = -0.2786     CD =  0.01618   =>   CDf =  0.00642    CDp =  0.00976

 Side 1  free  transition at x/c =  0.6994   66
 Side 2  free  transition at x/c =  0.5957   48

   5   rms: 0.2026E-05   max: -.2043E-04   D at    4  2
       a =  3.000      CL =  1.4205
      Cm = -0.2786     CD =  0.01618   =>   CDf =  0.00642    CDp =  0.00976

 Point added to stored polar  1
 Point written to save file  000170M0.1.log                                  
 Dump file unspecified or not available
 Calculating wake trajectory ...
 Calculating source influence matrix ...

 Solving BL system ...

 Side 1  free  transition at x/c =  0.6994   66
 Side 2  free  transition at x/c =  0.5957   48

   1   rms: 0.1558E+00   max: -.6585E+00   T at   48  2   RLX: 0.759
       a =  4.000      CL =  1.4730
      Cm = -0.2738     CD =  0.01753   =>   CDf =  0.00623    CDp =  0.01130

 Side 1  free  transition at x/c =  0.6853   67
 Side 2  free  transition at x/c =  0.6146   48

   2   rms: 0.6893E-01   max: -.3683E+00   D at   68  1
       a =  4.000      CL =  1.5304
      Cm = -0.2798     CD =  0.01702   =>   CDf =  0.00602    CDp =  0.01100

 Side 1  free  transition at x/c =  0.6872   68
 Side 2  free  transition at x/c =  0.6278   48

   3   rms: 0.6051E-02   max: -.5163E-01   D at   47  2
       a =  4.000      CL =  1.5269
      Cm = -0.2790     CD =  0.01696   =>   CDf =  0.00610    CDp =  0.01086

 Side 1  free  transition at x/c =  0.6871   68
 Side 2  free  transition at x/c =  0.6277   48

   4   rms: 0.1010E-02   max: -.1134E-01   D at    4  1
       a =  4.000      CL =  1.5268
      Cm = -0.2790     CD =  0.01696   =>   CDf =  0.00609    CDp =  0.01087

 Side 1  free  transition at x/c =  0.6871   68
 Side 2  free  transition at x/c =  0.6277   48

   5   rms: 0.1664E-05   max: 0.1838E-04   D at    8  1
       a =  4.000      CL =  1.5268
      Cm = -0.2790     CD =  0.01696   =>   CDf =  0.00609    CDp =  0.01087

 Point added to stored polar  1
 Point written to save file  000170M0.1.log                                  
 Dump file unspecified or not available
 Calculating wake trajectory ...
 Calculating source influence matrix ...

 Solving BL system ...

 Side 1  free  transition at x/c =  0.6871   68
 Side 2  free  transition at x/c =  0.6277   48

   1   rms: 0.1675E+00   max: -.7399E+00   T at   48  2   RLX: 0.676
       a =  5.000      CL =  1.6117
      Cm = -0.2815     CD =  0.01712   =>   CDf =  0.00587    CDp =  0.01125

 Side 1  free  transition at x/c =  0.6724   68
 Side 2  free  transition at x/c =  0.6485   48

   2   rms: 0.7606E-01   max: -.4472E+00   D at   68  1
       a =  5.000      CL =  1.6331
      Cm = -0.2785     CD =  0.01695   =>   CDf =  0.00583    CDp =  0.01112

 Side 1  free  transition at x/c =  0.6670   67
 Side 2  free  transition at x/c =  0.6641   49

   3   rms: 0.1163E-01   max: 0.1182E+00   D at   50  2
       a =  5.000      CL =  1.6293
      Cm = -0.2778     CD =  0.01712   =>   CDf =  0.00584    CDp =  0.01128

 Side 1  free  transition at x/c =  0.6663   67
 Side 2  free  transition at x/c =  0.6621   49

   4   rms: 0.1013E-02   max: 0.1057E-01   D at   50  2
       a =  5.000      CL =  1.6294
      Cm = -0.2779     CD =  0.01711   =>   CDf =  0.00581    CDp =  0.01130

 Side 1  free  transition at x/c =  0.6662   67
 Side 2  free  transition at x/c =  0.6618   49

   5   rms: 0.1249E-04   max: -.7127E-04   D at   49  2
       a =  5.000      CL =  1.6294
      Cm = -0.2779     CD =  0.01711   =>   CDf =  0.00581    CDp =  0.01130

 Point added to stored polar  1
 Point written to save file  000170M0.1.log                                  
 Dump file unspecified or not available
 Calculating wake trajectory ...
 Calculating source influence matrix ...

 Solving BL system ...

 Side 1  free  transition at x/c =  0.6662   67
 Side 2  free  transition at x/c =  0.6618   49

   1   rms: 0.1496E+00   max: 0.7435E+00   T at   67  1   RLX: 0.775
       a =  6.000      CL =  1.6747
      Cm = -0.2706     CD =  0.01793   =>   CDf =  0.00556    CDp =  0.01237

 Side 1  free  transition at x/c =  0.6401   67
 Side 2  free  transition at x/c =  0.6864   49

   2   rms: 0.9257E-01   max: -.5177E+00   D at   67  1   RLX: 0.966
       a =  6.000      CL =  1.7374
      Cm = -0.2776     CD =  0.01680   =>   CDf =  0.00569    CDp =  0.01111

 MRCHDU: Convergence failed at  51  side 2    Res =  0.2030E+01
 MRCHDU: Convergence failed at  52  side 2    Res =  0.7936E+01
 MRCHDU: Convergence failed at  53  side 2    Res =  0.3451E+01
 MRCHDU: Convergence failed at  54  side 2    Res =  0.4987E+01
 MRCHDU: Convergence failed at  55  side 2    Res =  0.8390E+01
 MRCHDU: Convergence failed at  56  side 2    Res =  0.1371E+02
 MRCHDU: Convergence failed at  57  side 2    Res =  0.2367E+02
 MRCHDU: Convergence failed at  58  side 2    Res =  0.3412E+02
 MRCHDU: Convergence failed at  59  side 2    Res =  0.3733E+02
 MRCHDU: Convergence failed at  60  side 2    Res =  0.3005E+02
 MRCHDU: Convergence failed at  61  side 2    Res =  0.2047E+02
 MRCHDU: Convergence failed at  62  side 2    Res =  0.1279E+02
 MRCHDU: Convergence failed at  63  side 2    Res =  0.7755E+01
 MRCHDU: Convergence failed at  64  side 2    Res =  0.4144E+01
 Side 1  free  transition at x/c =  0.6389   66
 Side 2  free  transition at x/c =  0.7068   51

   3   rms: 0.1629E+00   max: -.9048E+00   D at   63  2   RLX: 0.553
       a =  6.000      CL =  1.7252
      Cm = -0.2727     CD =  0.01647   =>   CDf =  0.00505    CDp =  0.01141

 Side 1  free  transition at x/c =  0.6379   66
 Side 2  free  transition at x/c =  0.7041   51

   4   rms: 0.3330E-01   max: -.4234E+00   D at   52  2
       a =  6.000      CL =  1.7227
      Cm = -0.2746     CD =  0.01711   =>   CDf =  0.00560    CDp =  0.01151

 Side 1  free  transition at x/c =  0.6378   66
 Side 2  free  transition at x/c =  0.7008   50

   5   rms: 0.3152E-02   max: 0.6484E-01   D at   53  2
       a =  6.000      CL =  1.7225
      Cm = -0.2746     CD =  0.01711   =>   CDf =  0.00556    CDp =  0.01155

 Side 1  free  transition at x/c =  0.6378   66
 Side 2  free  transition at x/c =  0.7003   50

   6   rms: 0.1238E-03   max: -.2942E-02   D at   53  2
       a =  6.000      CL =  1.7225
      Cm = -0.2746     CD =  0.01711   =>   CDf =  0.00555    CDp =  0.01156

 Side 1  free  transition at x/c =  0.6378   66
 Side 2  free  transition at x/c =  0.7003   50

   7   rms: 0.8509E-06   max: -.8267E-05   D at   53  2
       a =  6.000      CL =  1.7225
      Cm = -0.2746     CD =  0.01711   =>   CDf =  0.00555    CDp =  0.01156

 Point added to stored polar  1
 Point written to save file  000170M0.1.log                                  
 Dump file unspecified or not available
 Calculating wake trajectory ...
 Calculating source influence matrix ...

 Solving BL system ...

 Side 1  free  transition at x/c =  0.6378   66
 Side 2  free  transition at x/c =  0.7003   50

   1   rms: 0.1535E+00   max: 0.6688E+00   T at   66  1   RLX: 0.761
       a =  7.000      CL =  1.7432
      Cm = -0.2632     CD =  0.01867   =>   CDf =  0.00527    CDp =  0.01340

 MRCHDU: Convergence failed at  52  side 2    Res =  0.1967E+02
 MRCHDU: Convergence failed at  53  side 2    Res =  0.3720E+01
 MRCHDU: Convergence failed at  54  side 2    Res =  0.3296E+01
 MRCHDU: Convergence failed at  55  side 2    Res =  0.5518E+01
 MRCHDU: Convergence failed at  56  side 2    Res =  0.9024E+01
 MRCHDU: Convergence failed at  57  side 2    Res =  0.1574E+02
 MRCHDU: Convergence failed at  58  side 2    Res =  0.2073E+02
 MRCHDU: Convergence failed at  59  side 2    Res =  0.1928E+02
 MRCHDU: Convergence failed at  60  side 2    Res =  0.1339E+02
 MRCHDU: Convergence failed at  61  side 2    Res =  0.8305E+01
 Side 1  free  transition at x/c =  0.6028   65
 Side 2  free  transition at x/c =  0.7372   52

   2   rms: 0.1539E+00   max: -.8057E+00   D at   60  2   RLX: 0.621
       a =  7.000      CL =  1.7613
      Cm = -0.2603     CD =  0.01876   =>   CDf =  0.00504    CDp =  0.01372

 Side 1  free  transition at x/c =  0.5996   65
 Side 2  free  transition at x/c =  0.7435   52

   3   rms: 0.3991E-01   max: -.4734E+00   D at   54  2
       a =  7.000      CL =  1.7635
      Cm = -0.2614     CD =  0.01821   =>   CDf =  0.00525    CDp =  0.01296

 Side 1  free  transition at x/c =  0.5990   65
 Side 2  free  transition at x/c =  0.7424   52

   4   rms: 0.8414E-02   max: 0.7662E-01   D at   55  2
       a =  7.000      CL =  1.7678
      Cm = -0.2623     CD =  0.01824   =>   CDf =  0.00514    CDp =  0.01311

 Side 1  free  transition at x/c =  0.5972   65
 Side 2  free  transition at x/c =  0.7419   52

   5   rms: 0.7476E-03   max: -.4702E-02   D at   65  1
       a =  7.000      CL =  1.7681
      Cm = -0.2624     CD =  0.01824   =>   CDf =  0.00518    CDp =  0.01306

 Side 1  free  transition at x/c =  0.5972   65
 Side 2  free  transition at x/c =  0.7418   52

   6   rms: 0.2606E-04   max: -.9361E-04   D at   87  1
       a =  7.000      CL =  1.7681
      Cm = -0.2624     CD =  0.01824   =>   CDf =  0.00518    CDp =  0.01306

 Point added to stored polar  1
 Point written to save file  000170M0.1.log                                  
 Dump file unspecified or not available
 Calculating wake trajectory ...
 Calculating source influence matrix ...

 Solving BL system ...

 Side 1  free  transition at x/c =  0.5972   65
 Side 2  free  transition at x/c =  0.7418   52

   1   rms: 0.1823E+00   max: -.1026E+01   D at   66  1   RLX: 0.488
       a =  8.000      CL =  1.7986
      Cm = -0.2579     CD =  0.01862   =>   CDf =  0.00487    CDp =  0.01375

 Side 1  free  transition at x/c =  0.5632   63
 Side 2  free  transition at x/c =  0.7656   53

   2   rms: 0.1242E+00   max: -.5928E+00   C at   53  2   RLX: 0.843
       a =  8.000      CL =  1.7728
      Cm = -0.2463     CD =  0.02155   =>   CDf =  0.00512    CDp =  0.01644

 Side 1  free  transition at x/c =  0.5204   61
 Side 2  free  transition at x/c =  0.7851   54

   3   rms: 0.4025E-01   max: -.2667E+00   C at   54  2
       a =  8.000      CL =  1.7641
      Cm = -0.2437     CD =  0.02296   =>   CDf =  0.00518    CDp =  0.01777

 Side 1  free  transition at x/c =  0.5073   60
 Side 2  free  transition at x/c =  0.8001   55

   4   rms: 0.5100E-02   max: -.7660E-01   D at   54  2
       a =  8.000      CL =  1.7624
      Cm = -0.2435     CD =  0.02298   =>   CDf =  0.00509    CDp =  0.01789

 Side 1  free  transition at x/c =  0.5074   60
 Side 2  free  transition at x/c =  0.7981   55

   5   rms: 0.5057E-03   max: 0.7579E-02   C at   55  2
       a =  8.000      CL =  1.7624
      Cm = -0.2434     CD =  0.02297   =>   CDf =  0.00508    CDp =  0.01789

 Side 1  free  transition at x/c =  0.5074   60
 Side 2  free  transition at x/c =  0.7979   55

   6   rms: 0.3767E-05   max: -.3228E-04   D at   57  2
       a =  8.000      CL =  1.7624
      Cm = -0.2434     CD =  0.02297   =>   CDf =  0.00508    CDp =  0.01789

 Point added to stored polar  1
 Point written to save file  000170M0.1.log                                  
 Dump file unspecified or not available
 Calculating wake trajectory ...
 Calculating source influence matrix ...

 Solving BL system ...

 Side 1  free  transition at x/c =  0.5074   60
 Side 2  free  transition at x/c =  0.7979   55

   1   rms: 0.2862E+00   max: 0.3109E+01   C at   60  1   RLX: 0.371
       a =  9.000      CL =  1.7366
      Cm = -0.2335     CD =  0.02665   =>   CDf =  0.00509    CDp =  0.02156

 MRCHDU: Convergence failed at  81  side 1    Res =  0.4277E+01
 MRCHDU: Convergence failed at  82  side 1    Res =  0.2000E+01
 Side 1  free  transition at x/c =  0.2101   40
 Side 2  free  transition at x/c =  0.8209   56

   2   rms: 0.2245E+00   max: 0.2283E+01   C at   40  1   RLX: 0.575
       a =  9.000      CL =  1.6925
      Cm = -0.2316     CD =  0.03474   =>   CDf =  0.00730    CDp =  0.02744

 Side 1  free  transition at x/c =  0.1826   38
 Side 2  free  transition at x/c =  0.8538   58

   3   rms: 0.3652E+00   max: -.4945E+01   C at   38  1   RLX: 0.101
       a =  9.000      CL =  1.6910
      Cm = -0.2325     CD =  0.03488   =>   CDf =  0.00717    CDp =  0.02771

 Side 1  free  transition at x/c =  0.1945   39
 Side 2  free  transition at x/c =  0.8539   58

   4   rms: 0.1774E+00   max: -.3396E+01   C at   39  1   RLX: 0.147
       a =  9.000      CL =  1.6828
      Cm = -0.2300     CD =  0.03583   =>   CDf =  0.00709    CDp =  0.02874

 Side 1  free  transition at x/c =  0.2063   40
 Side 2  free  transition at x/c =  0.8644   59

   5   rms: 0.3783E+00   max: -.5556E+01   C at   59  2   RLX: 0.090
       a =  9.000      CL =  1.6783
      Cm = -0.2283     CD =  0.03597   =>   CDf =  0.00691    CDp =  0.02907

 Side 1  free  transition at x/c =  0.2147   40
 Side 2  free  transition at x/c =  0.8663   59

   6   rms: 0.1613E+00   max: -.2771E+01   C at   40  1   RLX: 0.180
       a =  9.000      CL =  1.6709
      Cm = -0.2259     CD =  0.03683   =>   CDf =  0.00685    CDp =  0.02998

 Side 1  free  transition at x/c =  0.2269   41
 Side 2  free  transition at x/c =  0.8833   60

   7   rms: 0.1454E+01   max: -.1937E+02   C at   60  2   RLX: 0.026
       a =  9.000      CL =  1.6698
      Cm = -0.2253     CD =  0.03659   =>   CDf =  0.00665    CDp =  0.02993

 Side 1  free  transition at x/c =  0.2308   41
 Side 2  free  transition at x/c =  0.8836   60

   8   rms: 0.2709E+00   max: -.3928E+01   C at   60  2   RLX: 0.127
       a =  9.000      CL =  1.6659
      Cm = -0.2240     CD =  0.03701   =>   CDf =  0.00666    CDp =  0.03035

 Side 1  free  transition at x/c =  0.2394   42
 Side 2  free  transition at x/c =  0.8986   61

   9   rms: 0.1983E+01   max: -.2349E+02   C at   61  2   RLX: 0.021
       a =  9.000      CL =  1.6652
      Cm = -0.2237     CD =  0.03690   =>   CDf =  0.00653    CDp =  0.03036

 Side 1  free  transition at x/c =  0.2412   42
 Side 2  free  transition at x/c =  0.9178   63

  10   rms: 0.4938E+01   max: -.5806E+02   C at   63  2   RLX: 0.009
       a =  9.000      CL =  1.6652
      Cm = -0.2238     CD =  0.03686   =>   CDf =  0.00651    CDp =  0.03035

 Side 1  free  transition at x/c =  0.2424   42
 Side 2  free  transition at x/c =  0.9306   64

  11   rms: 0.5843E+01   max: -.7045E+02   C at   64  2   RLX: 0.007
       a =  9.000      CL =  1.6650
      Cm = -0.2237     CD =  0.03684   =>   CDf =  0.00650    CDp =  0.03034

 Side 1  free  transition at x/c =  0.2433   42
 Side 2  free  transition at x/c =  0.9436   65

  12   rms: 0.7163E+01   max: -.9127E+02   C at   65  2   RLX: 0.005
       a =  9.000      CL =  1.6648
      Cm = -0.2236     CD =  0.03684   =>   CDf =  0.00649    CDp =  0.03035

 Side 1  free  transition at x/c =  0.2440   42
 Side 2  free  transition at x/c =  0.9559   66

  13   rms: 0.8447E+01   max: -.1176E+03   C at   66  2   RLX: 0.004
       a =  9.000      CL =  1.6647
      Cm = -0.2235     CD =  0.03683   =>   CDf =  0.00649    CDp =  0.03035

 Side 1  free  transition at x/c =  0.2445   42
 Side 2  free  transition at x/c =  0.9674   66

  14   rms: 0.1159E+02   max: -.1602E+03   C at   66  2   RLX: 0.003
       a =  9.000      CL =  1.6646
      Cm = -0.2235     CD =  0.03683   =>   CDf =  0.00648    CDp =  0.03035

 Side 1  free  transition at x/c =  0.2449   42
 Side 2  free  transition at x/c =  0.9780   67

  15   rms: 0.1448E+02   max: -.2288E+03   C at   67  2   RLX: 0.002
       a =  9.000      CL =  1.6645
      Cm = -0.2235     CD =  0.03682   =>   CDf =  0.00648    CDp =  0.03034

 Side 1  free  transition at x/c =  0.2452   42
 Side 2  free  transition at x/c =  0.9875   68

  16   rms: 0.1078E+02   max: -.2073E+03   C at   68  2   RLX: 0.002
       a =  9.000      CL =  1.6645
      Cm = -0.2234     CD =  0.03682   =>   CDf =  0.00647    CDp =  0.03034

 Side 1  free  transition at x/c =  0.2454   42
 Side 2  free  transition at x/c =  0.9966   69

  17   rms: 0.1759E+03   max: -.4772E+04   C at   69  2   RLX: 0.000
       a =  9.000      CL =  1.6645
      Cm = -0.2234     CD =  0.03681   =>   CDf =  0.00648    CDp =  0.03033

 Side 1  free  transition at x/c =  0.2455   42
 Side 2  free  transition at x/c =  0.9975   69

  18   rms: 0.7927E+01   max: -.2150E+03   C at   69  2   RLX: 0.002
       a =  9.000      CL =  1.6644
      Cm = -0.2234     CD =  0.03683   =>   CDf =  0.00648    CDp =  0.03036

 Side 1  free  transition at x/c =  0.2454   42
 Side 2  free  transition at x/c =  0.9982   69

  19   rms: 0.4152E+01   max: -.1125E+03   C at   69  2   RLX: 0.004
       a =  9.000      CL =  1.6642
      Cm = -0.2234     CD =  0.03688   =>   CDf =  0.00648    CDp =  0.03040

 Side 1  free  transition at x/c =  0.2451   42
 Side 2  free  transition at x/c =  0.9989   69

  20   rms: 0.2616E+01   max: -.7082E+02   C at   69  2   RLX: 0.007
       a =  9.000      CL =  1.6640
      Cm = -0.2234     CD =  0.03694   =>   CDf =  0.00647    CDp =  0.03047

 Side 1  free  transition at x/c =  0.2448   42
 Side 2  free  transition at x/c =  0.9996   69

  21   rms: 0.1681E+01   max: -.4537E+02   C at   69  2   RLX: 0.011
       a =  9.000      CL =  1.6637
      Cm = -0.2233     CD =  0.03705   =>   CDf =  0.00647    CDp =  0.03057

 Side 1  free  transition at x/c =  0.2441   42
 Side 2 forced transition at x/c =  1.0001   69

  22   rms: 0.9363E-01   max: -.1632E+01   C at   42  1   RLX: 0.306
       a =  9.000      CL =  1.6553
      Cm = -0.2205     CD =  0.03791   =>   CDf =  0.00647    CDp =  0.03144

 Side 1  free  transition at x/c =  0.2572   43
 Side 2 forced transition at x/c =  1.0001   69

  23   rms: 0.5429E-01   max: -.9546E+00   C at   43  1   RLX: 0.524
       a =  9.000      CL =  1.6451
      Cm = -0.2169     CD =  0.03887   =>   CDf =  0.00635    CDp =  0.03252

 Side 1  free  transition at x/c =  0.2701   44
 Side 2 forced transition at x/c =  1.0001   69

  24   rms: 0.2162E-01   max: -.3714E+00   C at   44  1
       a =  9.000      CL =  1.6363
      Cm = -0.2138     CD =  0.03968   =>   CDf =  0.00622    CDp =  0.03346

 Side 1  free  transition at x/c =  0.2805   45
 Side 2 forced transition at x/c =  1.0001   69

  25   rms: 0.1365E-02   max: 0.2533E-01   C at   45  1
       a =  9.000      CL =  1.6363
      Cm = -0.2138     CD =  0.03962   =>   CDf =  0.00612    CDp =  0.03350
 VISCAL:  Convergence failed
 Calculating wake trajectory ...
 Calculating source influence matrix ...

 Solving BL system ...

 Side 1  free  transition at x/c =  0.2800   45
 Side 2 forced transition at x/c =  1.0001   69

   1   rms: 0.5863E+00   max: 0.1069E+02   C at   45  1   RLX: 0.140
       a = 10.000      CL =  1.6153
      Cm = -0.2103     CD =  0.04326   =>   CDf =  0.00613    CDp =  0.03712

 Side 1  free  transition at x/c =  0.2444   42
 Side 2 forced transition at x/c =  1.0001   69

   2   rms: 0.6534E+00   max: 0.1229E+02   C at   42  1   RLX: 0.122
       a = 10.000      CL =  1.5998
      Cm = -0.2077     CD =  0.04568   =>   CDf =  0.00632    CDp =  0.03935

 Side 1  free  transition at x/c =  0.2134   40
 Side 2 forced transition at x/c =  1.0001   69

   3   rms: 0.5500E+00   max: 0.1059E+02   C at   40  1   RLX: 0.142
       a = 10.000      CL =  1.5847
      Cm = -0.2054     CD =  0.04829   =>   CDf =  0.00649    CDp =  0.04180

 Side 1  free  transition at x/c =  0.1845   38
 Side 2 forced transition at x/c =  1.0001   69

   4   rms: 0.4927E+00   max: 0.9790E+01   C at   38  1   RLX: 0.153
       a = 10.000      CL =  1.5709
      Cm = -0.2032     CD =  0.05070   =>   CDf =  0.00665    CDp =  0.04406

 Side 1  free  transition at x/c =  0.1607   36
 Side 2 forced transition at x/c =  1.0001   69

   5   rms: 0.4500E+00   max: 0.9057E+01   C at   36  1   RLX: 0.166
       a = 10.000      CL =  1.5600
      Cm = -0.2012     CD =  0.05270   =>   CDf =  0.00677    CDp =  0.04593

 Side 1  free  transition at x/c =  0.1355   35
 Side 2 forced transition at x/c =  1.0001   69

   6   rms: 0.2344E+00   max: 0.4720E+01   C at   35  1   RLX: 0.318
       a = 10.000      CL =  1.5465
      Cm = -0.1992     CD =  0.05599   =>   CDf =  0.00693    CDp =  0.04907

 Side 1  free  transition at x/c =  0.1137   33
 Side 2 forced transition at x/c =  1.0001   69

   7   rms: 0.1544E+00   max: 0.3265E+01   C at   33  1   RLX: 0.459
       a = 10.000      CL =  1.5392
      Cm = -0.1972     CD =  0.05846   =>   CDf =  0.00704    CDp =  0.05142

 Side 1  free  transition at x/c =  0.0949   32
 Side 2 forced transition at x/c =  1.0001   69

   8   rms: 0.5085E-01   max: 0.7848E+00   C at   32  1
       a = 10.000      CL =  1.5376
      Cm = -0.1963     CD =  0.06116   =>   CDf =  0.00716    CDp =  0.05400

 Side 1  free  transition at x/c =  0.0828   31
 Side 2 forced transition at x/c =  1.0001   69

   9   rms: 0.7421E-02   max: -.1124E+00   D at   32  1
       a = 10.000      CL =  1.5405
      Cm = -0.1964     CD =  0.06046   =>   CDf =  0.00721    CDp =  0.05324

 Side 1  free  transition at x/c =  0.0813   31
 Side 2 forced transition at x/c =  1.0001   69

  10   rms: 0.4398E-03   max: -.6194E-02   D at   32  1
       a = 10.000      CL =  1.5403
      Cm = -0.1964     CD =  0.06047   =>   CDf =  0.00724    CDp =  0.05322

 Side 1  free  transition at x/c =  0.0812   31
 Side 2 forced transition at x/c =  1.0001   69

  11   rms: 0.2207E-04   max: -.1624E-03   C at   31  1
       a = 10.000      CL =  1.5403
      Cm = -0.1964     CD =  0.06047   =>   CDf =  0.00725    CDp =  0.05322

 Point added to stored polar  1
 Point written to save file  000170M0.1.log                                  
 Dump file unspecified or not available
 Calculating wake trajectory ...
 Calculating source influence matrix ...

 Solving BL system ...

 Side 1  free  transition at x/c =  0.0813   31
 Side 2 forced transition at x/c =  1.0001   69

   1   rms: 0.2052E+00   max: 0.1727E+01   C at   31  1   RLX: 0.370
       a = 11.000      CL =  1.5318
      Cm = -0.1932     CD =  0.06675   =>   CDf =  0.00726    CDp =  0.05949

 Side 1  free  transition at x/c =  0.0686   30
 Side 2 forced transition at x/c =  1.0001   69

   2   rms: 0.1153E+00   max: 0.7599E+00   C at   30  1   RLX: 0.792
       a = 11.000      CL =  1.5279
      Cm = -0.1891     CD =  0.07379   =>   CDf =  0.00729    CDp =  0.06650

 Side 1  free  transition at x/c =  0.0574   29
 Side 2 forced transition at x/c =  1.0001   69

   3   rms: 0.6169E-01   max: -.7138E+00   D at   29  1   RLX: 0.701
       a = 11.000      CL =  1.5334
      Cm = -0.1910     CD =  0.07343   =>   CDf =  0.00718    CDp =  0.06626

 Side 1  free  transition at x/c =  0.0576   29
 Side 2 forced transition at x/c =  1.0001   69

   4   rms: 0.2020E-01   max: -.3799E+00   D at   29  1
       a = 11.000      CL =  1.5374
      Cm = -0.1891     CD =  0.07309   =>   CDf =  0.00710    CDp =  0.06599

 Side 1  free  transition at x/c =  0.0562   29
 Side 2 forced transition at x/c =  1.0001   69

   5   rms: 0.6056E-02   max: -.5604E-01   D at   29  1
       a = 11.000      CL =  1.5339
      Cm = -0.1888     CD =  0.07374   =>   CDf =  0.00716    CDp =  0.06658

 Side 1  free  transition at x/c =  0.0556   28
 Side 2 forced transition at x/c =  1.0001   69

   6   rms: 0.1390E-02   max: -.1268E-01   C at   28  1
       a = 11.000      CL =  1.5344
      Cm = -0.1889     CD =  0.07361   =>   CDf =  0.00718    CDp =  0.06643

 Side 1  free  transition at x/c =  0.0556   28
 Side 2 forced transition at x/c =  1.0001   69

   7   rms: 0.1045E-03   max: -.4248E-03   D at   68  1
       a = 11.000      CL =  1.5345
      Cm = -0.1889     CD =  0.07360   =>   CDf =  0.00718    CDp =  0.06643

 Side 1  free  transition at x/c =  0.0555   28
 Side 2 forced transition at x/c =  1.0001   69

   8   rms: 0.1078E-04   max: -.8092E-04   D at   84  2
       a = 11.000      CL =  1.5345
      Cm = -0.1889     CD =  0.07361   =>   CDf =  0.00718    CDp =  0.06643

 Point added to stored polar  1
 Point written to save file  000170M0.1.log                                  
 Dump file unspecified or not available
 Calculating wake trajectory ...
 Calculating source influence matrix ...

 Solving BL system ...

 Side 1  free  transition at x/c =  0.0555   28
 Side 2 forced transition at x/c =  1.0001   69

   1   rms: 0.1367E+00   max: -.1024E+01   C at   28  1   RLX: 0.466
       a = 12.000      CL =  1.5543
      Cm = -0.1873     CD =  0.07781   =>   CDf =  0.00683    CDp =  0.07098

 Side 1  free  transition at x/c =  0.0494   29
 Side 2 forced transition at x/c =  1.0001   68

   2   rms: 0.6772E-01   max: 0.3696E+00   T at   29  1
       a = 12.000      CL =  1.5549
      Cm = -0.1841     CD =  0.08516   =>   CDf =  0.00707    CDp =  0.07808

 Side 1  free  transition at x/c =  0.0451   28
 Side 2 forced transition at x/c =  1.0001   68

   3   rms: 0.1991E-01   max: -.1302E+00   D at   29  1
       a = 12.000      CL =  1.5419
      Cm = -0.1832     CD =  0.08566   =>   CDf =  0.00699    CDp =  0.07867

 Side 1  free  transition at x/c =  0.0451   28
 Side 2 forced transition at x/c =  1.0001   68

   4   rms: 0.1993E-02   max: -.1428E-01   D at   68  1
       a = 12.000      CL =  1.5428
      Cm = -0.1831     CD =  0.08527   =>   CDf =  0.00694    CDp =  0.07833

 Side 1  free  transition at x/c =  0.0451   28
 Side 2 forced transition at x/c =  1.0001   68

   5   rms: 0.2833E-03   max: -.1486E-02   D at   83  2
       a = 12.000      CL =  1.5431
      Cm = -0.1831     CD =  0.08530   =>   CDf =  0.00694    CDp =  0.07836

 Side 1  free  transition at x/c =  0.0451   28
 Side 2 forced transition at x/c =  1.0001   68

   6   rms: 0.1732E-04   max: -.1439E-03   D at   84  2
       a = 12.000      CL =  1.5431
      Cm = -0.1831     CD =  0.08530   =>   CDf =  0.00694    CDp =  0.07836

 Point added to stored polar  1
 Point written to save file  000170M0.1.log                                  
 Dump file unspecified or not available
 Calculating wake trajectory ...
 Calculating source influence matrix ...

 Solving BL system ...

 Side 1  free  transition at x/c =  0.0451   28
 Side 2 forced transition at x/c =  1.0001   68

   1   rms: 0.1253E+00   max: 0.8136E+00   T at   28  1   RLX: 0.422
       a = 13.000      CL =  1.5600
      Cm = -0.1818     CD =  0.08934   =>   CDf =  0.00696    CDp =  0.08238

 Side 1  free  transition at x/c =  0.0409   28
 Side 2 forced transition at x/c =  1.0001   68

   2   rms: 0.6815E-01   max: 0.4085E+00   T at   28  1
       a = 13.000      CL =  1.5742
      Cm = -0.1796     CD =  0.09548   =>   CDf =  0.00644    CDp =  0.08904

 Side 1  free  transition at x/c =  0.0369   28
 Side 2 forced transition at x/c =  1.0001   67

   3   rms: 0.1682E-01   max: -.1069E+00   D at   30  1
       a = 13.000      CL =  1.5614
      Cm = -0.1783     CD =  0.09545   =>   CDf =  0.00680    CDp =  0.08865

 Side 1  free  transition at x/c =  0.0370   28
 Side 2 forced transition at x/c =  1.0001   67

   4   rms: 0.2300E-02   max: -.1134E-01   D at    4  1
       a = 13.000      CL =  1.5630
      Cm = -0.1783     CD =  0.09526   =>   CDf =  0.00678    CDp =  0.08848

 Side 1  free  transition at x/c =  0.0369   28
 Side 2 forced transition at x/c =  1.0001   67

   5   rms: 0.2703E-03   max: -.1516E-02   D at   84  2
       a = 13.000      CL =  1.5632
      Cm = -0.1783     CD =  0.09529   =>   CDf =  0.00678    CDp =  0.08851

 Side 1  free  transition at x/c =  0.0369   28
 Side 2 forced transition at x/c =  1.0001   67

   6   rms: 0.2556E-04   max: 0.1868E-03   C at   67  2
       a = 13.000      CL =  1.5632
      Cm = -0.1783     CD =  0.09530   =>   CDf =  0.00678    CDp =  0.08852

 Point added to stored polar  1
 Point written to save file  000170M0.1.log                                  
 Dump file unspecified or not available
 Calculating wake trajectory ...
 Calculating source influence matrix ...

 Solving BL system ...

 Side 1  free  transition at x/c =  0.0369   28
 Side 2 forced transition at x/c =  1.0001   67

   1   rms: 0.1272E+00   max: 0.9772E+00   T at   28  1   RLX: 0.393
       a = 14.000      CL =  1.5819
      Cm = -0.1778     CD =  0.09889   =>   CDf =  0.00680    CDp =  0.09209

 Side 1  free  transition at x/c =  0.0340   28
 Side 2 forced transition at x/c =  1.0001   67

   2   rms: 0.7101E-01   max: 0.4600E+00   T at   28  1
       a = 14.000      CL =  1.6036
      Cm = -0.1762     CD =  0.10450   =>   CDf =  0.00664    CDp =  0.09785

 Side 1  free  transition at x/c =  0.0298   27
 Side 2 forced transition at x/c =  1.0001   67

   3   rms: 0.2193E-01   max: -.1333E+00   D at   29  1
       a = 14.000      CL =  1.5910
      Cm = -0.1748     CD =  0.10378   =>   CDf =  0.00662    CDp =  0.09716

 Side 1  free  transition at x/c =  0.0300   27
 Side 2 forced transition at x/c =  1.0001   67

   4   rms: 0.5024E-02   max: 0.2295E-01   T at   27  1
       a = 14.000      CL =  1.5948
      Cm = -0.1749     CD =  0.10354   =>   CDf =  0.00662    CDp =  0.09692

 Side 1  free  transition at x/c =  0.0299   27
 Side 2 forced transition at x/c =  1.0001   67

   5   rms: 0.6048E-03   max: -.3757E-02   D at   84  2
       a = 14.000      CL =  1.5952
      Cm = -0.1750     CD =  0.10365   =>   CDf =  0.00662    CDp =  0.09703

 Side 1  free  transition at x/c =  0.0299   27
 Side 2 forced transition at x/c =  1.0001   67

   6   rms: 0.3909E-04   max: -.3219E-03   D at   84  2
       a = 14.000      CL =  1.5953
      Cm = -0.1750     CD =  0.10366   =>   CDf =  0.00662    CDp =  0.09704

 Point added to stored polar  1
 Point written to save file  000170M0.1.log                                  
 Dump file unspecified or not available
 Calculating wake trajectory ...
 Calculating source influence matrix ...

 Solving BL system ...

 Side 1  free  transition at x/c =  0.0299   27
 Side 2 forced transition at x/c =  1.0001   67

   1   rms: 0.1202E+00   max: 0.8498E+00   T at   27  1   RLX: 0.368
       a = 15.000      CL =  1.6111
      Cm = -0.1746     CD =  0.10724   =>   CDf =  0.00616    CDp =  0.10107

 Side 1  free  transition at x/c =  0.0285   28
 Side 2 forced transition at x/c =  1.0001   66

   2   rms: 0.7584E-01   max: 0.3802E+00   T at   28  1
       a = 15.000      CL =  1.6382
      Cm = -0.1721     CD =  0.11168   =>   CDf =  0.00644    CDp =  0.10524

 Side 1  free  transition at x/c =  0.0257   28
 Side 2 forced transition at x/c =  1.0001   66

   3   rms: 0.1760E-01   max: -.1071E+00   D at   28  1
       a = 15.000      CL =  1.6308
      Cm = -0.1720     CD =  0.11123   =>   CDf =  0.0Got result {'DD': 0.01554, 'Dmin': 0.01572, 'LL': -1.2992}
Completed successfully in 2.01 seconds. [{'DD': 0.01554, 'Dmin': 0.01572, 'LL': -1.2992}]
0628    CDp =  0.10495

 Side 1  free  transition at x/c =  0.0259   28
 Side 2 forced transition at x/c =  1.0001   66

   4   rms: 0.3169E-02   max: -.1369E-01   D at   67  1
       a = 15.000      CL =  1.6331
      Cm = -0.1719     CD =  0.11095   =>   CDf =  0.00627    CDp =  0.10468

 Side 1  free  transition at x/c =  0.0258   28
 Side 2 forced transition at x/c =  1.0001   66

   5   rms: 0.4084E-03   max: -.2656E-02   D at   84  2
       a = 15.000      CL =  1.6334
      Cm = -0.1720     CD =  0.11104   =>   CDf =  0.00628    CDp =  0.10476

 Side 1  free  transition at x/c =  0.0258   28
 Side 2 forced transition at x/c =  1.0001   66

   6   rms: 0.2000E-04   max: -.1860E-03   D at   83  2
       a = 15.000      CL =  1.6334
      Cm = -0.1720     CD =  0.11105   =>   CDf =  0.00628    CDp =  0.10477

 Point added to stored polar  1
 Point written to save file  000170M0.1.log                                  
 Dump file unspecified or not available

.OPERva   c>  
 XFOIL   c>  
