Job launching after 0.30 seconds in submission.
Running python job.
Changed into dir /home/simonx/Documents/Udacity/Projects/capstone/PESM_NSGA2_CST_XFoil
Importing evaluationFunctionXFoil.py
Running evaluationFunctionXFoil.main()
0
1
2
0.04
resp: 
 ===================================================
  XFOIL Version 6.97
  Copyright (C) 2000   Mark Drela, Harold Youngren

  This software comes with ABSOLUTELY NO WARRANTY,
    subject to the GNU General Public License.

  Caveat computor
 ===================================================

 File  xfoil.def  not found

   QUIT    Exit program

  .OPER    Direct operating point(s)
  .MDES    Complex mapping design routine
  .QDES    Surface speed design routine
  .GDES    Geometry design routine

   SAVE f  Write airfoil to labeled coordinate file
   PSAV f  Write airfoil to plain coordinate file
   ISAV f  Write airfoil to ISES coordinate file
   MSAV f  Write airfoil to MSES coordinate file
   REVE    Reverse written-airfoil node ordering
   DELI i  Change written-airfoil file delimiters

   LOAD f  Read buffer airfoil from coordinate file
   NACA i  Set NACA 4,5-digit airfoil and buffer airfoil
   INTE    Set buffer airfoil by interpolating two airfoils
   NORM    Buffer airfoil normalization toggle
   HALF    Halve the number of points in buffer airfoil
   XYCM rr Change CM reference location, currently  0.25000 0.00000

   BEND    Display structural properties of current airfoil

   PCOP    Set current-airfoil panel nodes directly from buffer airfoil points
   PANE    Set current-airfoil panel nodes ( 160 ) based on curvature
  .PPAR    Show/change paneling

  .PLOP    Plotting options

   WDEF f  Write  current-settings file
   RDEF f  Reread current-settings file
   NAME s  Specify new airfoil name
   NINC    Increment name version number

   Z       Zoom    | (available in all menus)
   U       Unzoom  | 

 XFOIL   c>   ...............................................

  G raphics-enable flag:        T
  S ize of plot object          10.00"
  A spect ratio of plot object   0.5500
  P age dimensions              11.00 x  8.50"
  M argins from page edges       0.00",  0.00"
  F ont size (relative)          0.0150
  W indow/screen size fraction   0.8000
  B lowup input method:        Cursor    
  O rientation of plot:        Landscape 
  C olor PostScript output?     F

      Option, Value   (or <Return>)    c>   ...............................................

  G raphics-enable flag:        F
  S ize of plot object          10.00"
  A spect ratio of plot object   0.5500
  P age dimensions              11.00 x  8.50"
  M argins from page edges       0.00",  0.00"
  F ont size (relative)          0.0150
  W indow/screen size fraction   0.8000
  B lowup input method:        Cursor    
  O rientation of plot:        Landscape 
  C olor PostScript output?     F

      Option, Value   (or <Return>)    c>  
 XFOIL   c>  
 Labeled airfoil file.  Name:  000274                                          

 Number of input coordinate points: 200
 Clockwise ordering
 Max thickness =     0.127641  at x =   0.391
 Max camber    =     0.079850  at x =   0.376

  LE  x,y  =  -0.00001   0.00052  |   Chord =   0.99988
  TE  x,y  =   0.99988   0.00005  |

 Current airfoil nodes set from buffer airfoil nodes ( 200 )

 XFOIL   c>  
 You are working with the buffer airfoil

.GDES   c>  
  i       x        y      angle
   2   0.9990   0.0004    0.032
   3   0.9978   0.0009    0.070
   4   0.9961   0.0016    0.101
   5   0.9938   0.0025    0.068
   6   0.9911   0.0036    0.134
   7   0.9880   0.0049    0.148
   8   0.9843   0.0063    0.144
   9   0.9801   0.0079    0.169
  10   0.9755   0.0098    0.197
  11   0.9704   0.0117    0.192
  12   0.9649   0.0138    0.205
  13   0.9589   0.0161    0.227
  14   0.9524   0.0185    0.237
  15   0.9455   0.0211    0.242
  16   0.9382   0.0238    0.244
  17   0.9304   0.0266    0.253
  18   0.9222   0.0295    0.260
  19   0.9135   0.0325    0.259
  20   0.9045   0.0356    0.267
  21   0.8951   0.0388    0.266
  22   0.8853   0.0421    0.268
  23   0.8751   0.0455    0.275
  24   0.8645   0.0489    0.262
  25   0.8536   0.0524    0.272
  26   0.8423   0.0559    0.276
  27   0.8307   0.0595    0.265
  28   0.8187   0.0631    0.275
  29   0.8065   0.0667    0.278
  30   0.7939   0.0704    0.275
  31   0.7810   0.0741    0.282
  32   0.7679   0.0778    0.290
  33   0.7545   0.0815    0.296
  34   0.7409   0.0852    0.306
  35   0.7270   0.0889    0.316
  36   0.7129   0.0926    0.326
  37   0.6986   0.0962    0.348
  38   0.6841   0.0998    0.356
  39   0.6694   0.1033    0.388
  40   0.6545   0.1068    0.396
  41   0.6395   0.1102    0.430
  42   0.6243   0.1135    0.454
  43   0.6091   0.1167    0.481
  44   0.5937   0.1198    0.516
  45   0.5782   0.1227    0.547
  46   0.5627   0.1256    0.582
  47   0.5471   0.1282    0.619
  48   0.5314   0.1308    0.653
  49   0.5157   0.1331    0.702
  50   0.5000   0.1352    0.732
  51   0.4843   0.1372    0.779
  52   0.4686   0.1389    0.817
  53   0.4529   0.1404    0.862
  54   0.4373   0.1416    0.898
  55   0.4218   0.1426    0.938
  56   0.4063   0.1433    0.980
  57   0.3909   0.1438    1.015
  58   0.3757   0.1440    1.045
  59   0.3605   0.1439    1.087
  60   0.3455   0.1435    1.104
  61   0.3306   0.1429    1.141
  62   0.3159   0.1420    1.156
  63   0.3014   0.1407    1.176
  64   0.2871   0.1392    1.191
  65   0.2730   0.1375    1.208
  66   0.2591   0.1354    1.209
  67   0.2455   0.1331    1.217
  68   0.2321   0.1305    1.217
  69   0.2190   0.1278    1.215
  70   0.2061   0.1247    1.205
  71   0.1935   0.1215    1.208
  72   0.1813   0.1181    1.189
  73   0.1693   0.1144    1.188
  74   0.1577   0.1107    1.183
  75   0.1464   0.1067    1.161
  76   0.1355   0.1027    1.169
  77   0.1249   0.0985    1.164
  78   0.1147   0.0942    1.166
  79   0.1049   0.0899    1.183
  80   0.0955   0.0855    1.186
  81   0.0865   0.0810    1.222
  82   0.0778   0.0765    1.264
  83   0.0696   0.0720    1.319
  84   0.0618   0.0675    1.381
  85   0.0545   0.0631    1.480
  86   0.0476   0.0586    1.606
  87   0.0411   0.0541    1.747
  88   0.0351   0.0497    1.940
  89   0.0296   0.0454    2.159
  90   0.0245   0.0410    2.446
  91   0.0199   0.0368    2.783
  92   0.0157   0.0325    3.194
  93   0.0120   0.0283    3.644
  94   0.0089   0.0242    4.214
  95   0.0062   0.0201    4.802
  96   0.0039   0.0160    5.428
  97   0.0022   0.0120    6.067
  98   0.0010   0.0080    6.576
  99   0.0002   0.0040    6.944
 100   0.0000   0.0000    9.672
 101   0.0002  -0.0023   11.948
 102   0.0010  -0.0046   11.149
 103   0.0022  -0.0068   10.078
 104   0.0039  -0.0089    8.876
 105   0.0062  -0.0109    7.749
 106   0.0089  -0.0127    6.734
 107   0.0120  -0.0143    5.824
 108   0.0157  -0.0158    5.061
 109   0.0199  -0.0170    4.402
 110   0.0245  -0.0180    3.808
 111   0.0296  -0.0187    3.321
 112   0.0351  -0.0192    2.872
 113   0.0411  -0.0194    2.483
 114   0.0476  -0.0194    2.134
 115   0.0545  -0.0191    1.820
 116   0.0618  -0.0185    1.540
 117   0.0696  -0.0177    1.274
 118   0.0778  -0.0166    1.046
 119   0.0865  -0.0154    0.818
 120   0.0955  -0.0140    0.630
 121   0.1049  -0.0123    0.443
 122   0.1147  -0.0106    0.272
 123   0.1249  -0.0087    0.120
 124   0.1355  -0.0067   -0.029
 125   0.1464  -0.0047   -0.150
 126   0.1577  -0.0027   -0.277
 127   0.1693  -0.0006   -0.377
 128   0.1813   0.0014   -0.476
 129   0.1935   0.0034   -0.557
 130   0.2061   0.0053   -0.629
 131   0.2190   0.0072   -0.682
 132   0.2321   0.0089   -0.737
 133   0.2455   0.0104   -0.773
 134   0.2591   0.0118   -0.791
 135   0.2730   0.0130   -0.810
 136   0.2871   0.0141   -0.803
 137   0.3014   0.0149   -0.802
 138   0.3159   0.0156   -0.780
 139   0.3306   0.0161   -0.749
 140   0.3455   0.0164   -0.717
 141   0.3605   0.0165   -0.673
 142   0.3757   0.0164   -0.617
 143   0.3909   0.0162   -0.563
 144   0.4063   0.0158   -0.505
 145   0.4218   0.0152   -0.439
 146   0.4373   0.0146   -0.375
 147   0.4529   0.0138   -0.306
 148   0.4686   0.0130   -0.234
 149   0.4843   0.0121   -0.171
 150   0.5000   0.0111   -0.105
 151   0.5157   0.0101   -0.040
 152   0.5314   0.0091    0.022
 153   0.5471   0.0081    0.077
 154   0.5627   0.0072    0.129
 155   0.5782   0.0062    0.179
 156   0.5937   0.0054    0.222
 157   0.6091   0.0046    0.259
 158   0.6243   0.0038    0.284
 159   0.6395   0.0032    0.309
 160   0.6545   0.0026    0.332
 161   0.6694   0.0021    0.334
 162   0.6841   0.0017    0.340
 163   0.6986   0.0014    0.340
 164   0.7129   0.0012    0.329
 165   0.7270   0.0011    0.310
 166   0.7409   0.0011    0.291
 167   0.7545   0.0011    0.263
 168   0.7679   0.0012    0.239
 169   0.7810   0.0013    0.192
 170   0.7939   0.0015    0.165
 171   0.8065   0.0017    0.113
 172   0.8187   0.0020    0.072
 173   0.8307   0.0022    0.033
 174   0.8423   0.0025   -0.020
 175   0.8536   0.0027   -0.062
 176   0.8645   0.0029   -0.114
 177   0.8751   0.0031   -0.149
 178   0.8853   0.0032   -0.201
 179   0.8951   0.0033   -0.228
 180   0.9045   0.0034   -0.273
 181   0.9135   0.0034   -0.305
 182   0.9222   0.0034   -0.329
 183   0.9304   0.0033   -0.351
 184   0.9382   0.0032   -0.377
 185   0.9455   0.0031   -0.384
 186   0.9524   0.0029   -0.385
 187   0.9589   0.0027   -0.397
 188   0.9649   0.0024   -0.392
 189   0.9704   0.0021   -0.376
 190   0.9755   0.0019   -0.369
 191   0.9801   0.0016   -0.346
 192   0.9843   0.0013   -0.317
 193   0.9880   0.0010   -0.288
 194   0.9911   0.0008   -0.274
 195   0.9938   0.0006   -0.190
 196   0.9961   0.0004   -0.205
 197   0.9978   0.0002   -0.103
 198   0.9990   0.0001   -0.163
 199   0.9998   0.0000    0.084

 Maximum panel corner angle = 11.948   at  i,x,y  = 101   0.0002  -0.0023

 Enter corner angle criterion for refinement (deg):   5.974
 Enter type of spline parameter (1=uniform, 2=arclength):   1
 Enter refinement x limits:  -0.10000   1.10000
 Number of points added:           20
 Max thickness =     0.127642  at x =   0.391
 Max camber    =     0.080175  at x =   0.376

 Maximum panel corner angle =  5.079   at  i,x,y  = 109   0.0001  -0.0016

.GDES   c>  
 Buffer airfoil is not identical to current airfoil

 XFOIL   c>  
 Blunt trailing edge.  Gap =  0.00027

 Paneling parameters used...
   Number of panel nodes       160
   Panel bunching parameter    1.000
   TE/LE panel density ratio   0.150
   Refined-area/LE panel density ratio    0.200
   Top    side refined area x/c limits  1.000 1.000
   Bottom side refined area x/c limits  1.000 1.000

 XFOIL   c>  
Enter output filename   s>  
 XFOIL   c>  
.OPERi   c>   Current iteration limit:          20

Enter new iteration limit   i>  
Enter new iteration limit   i>  
Enter new iteration limit   i>  
.OPERi   c>  
 M  =    0.0000
 Re =  0.3000E+06

.OPERv   c>  
 Sonic Cp =   -420.65      Sonic Q/Qinf =    22.825


.OPERv   c>  
 Polar  1 newly created for accumulation
 Airfoil archived with polar: 000274                                          

Enter  polar save filename  OR  <return> for no file   s>  
 New polar save file available

Enter  polar dump filename  OR  <return> for no file   s>  
 Polar dump file will NOT be written

 Polar accumulation enabled

.OPERva   c>   Calculating unit vorticity distributions ...
 Calculating wake trajectory ...
 Calculating source influence matrix ...

 Solving BL system ...

 Initializing BL ...
    side            1  ...
 MRCHUE: Inverse mode at  51     Hk =   4.240
 MRCHUE: Inverse mode at  52     Hk =   4.954
 MRCHUE: Inverse mode at  53     Hk =   5.654
 MRCHUE: Inverse mode at  54     Hk =   6.344
 MRCHUE: Inverse mode at  55     Hk =   7.027
 MRCHUE: Inverse mode at  56     Hk =   7.705
 MRCHUE: Inverse mode at  57     Hk =   8.379
 MRCHUE: Inverse mode at  58     Hk =   9.050
 MRCHUE: Inverse mode at  59     Hk =   7.657
 MRCHUE: Inverse mode at  60     Hk =   5.190
 MRCHUE: Inverse mode at  61     Hk =   3.659
 MRCHUE: Inverse mode at  62     Hk =   2.561
 MRCHUE: Convergence failed at  85  side 1    Res =  0.3713E+02
    side            2  ...
 MRCHUE: Inverse mode at  24     Hk =   4.222
 MRCHUE: Inverse mode at  25     Hk =   5.104
 MRCHUE: Inverse mode at  26     Hk =   6.015
 MRCHUE: Inverse mode at  27     Hk =   6.945
 MRCHUE: Inverse mode at  28     Hk =   7.873
 MRCHUE: Inverse mode at  29     Hk =   8.774
 MRCHUE: Inverse mode at  30     Hk =   9.641
 MRCHUE: Inverse mode at  31     Hk =   7.169
 MRCHUE: Inverse mode at  32     Hk =   4.641
 MRCHUE: Inverse mode at  33     Hk =   3.128
 MRCHUE: Convergence failed at  77  side 2    Res =  0.3226E+01

 MRCHDU: Convergence failed at  85  side 1    Res =  0.3303E+02
 MRCHDU: Convergence failed at  77  side 2    Res =  0.1413E+01
 Side 1  free  transition at x/c =  0.5679   59
 Side 2  free  transition at x/c =  0.1924   31

   1   rms: 0.5994E+00   max: 0.3076E+01   D at   79  2   RLX: 0.488
       a =  2.000      CL =  1.1144
      Cm = -0.1829     CD =  0.00757   =>   CDf =  0.00829    CDp = -0.00072

 Side 1  free  transition at x/c =  0.5781   60
 Side 2  free  transition at x/c =  0.1879   31

   2   rms: 0.1939E+00   max: 0.7984E+00   D at   83  2   RLX: 0.686
       a =  2.000      CL =  1.0439
      Cm = -0.1668     CD =  0.01162   =>   CDf =  0.00842    CDp =  0.00320

 MRCHDU: Convergence failed at  31  side 2    Res =  0.3217E+01
 MRCHDU: Convergence failed at  32  side 2    Res =  0.4527E+01
 MRCHDU: Convergence failed at  33  side 2    Res =  0.3059E+02
 MRCHDU: Convergence failed at  34  side 2    Res =  0.4707E+01
 MRCHDU: Convergence failed at  35  side 2    Res =  0.5100E+01
 MRCHDU: Convergence failed at  36  side 2    Res =  0.5541E+01
 MRCHDU: Convergence failed at  37  side 2    Res =  0.5721E+01
 MRCHDU: Convergence failed at  38  side 2    Res =  0.5584E+01
 MRCHDU: Convergence failed at  39  side 2    Res =  0.5179E+01
 MRCHDU: Convergence failed at  40  side 2    Res =  0.4624E+01
 MRCHDU: Convergence failed at  41  side 2    Res =  0.3969E+01
 MRCHDU: Convergence failed at  42  side 2    Res =  0.3336E+01
 MRCHDU: Convergence failed at  43  side 2    Res =  0.2740E+01
 MRCHDU: Convergence failed at  44  side 2    Res =  0.2257E+01
 MRCHDU: Convergence failed at  45  side 2    Res =  0.3871E+01
 MRCHDU: Convergence failed at  46  side 2    Res =  0.3834E+01
 MRCHDU: Convergence failed at  47  side 2    Res =  0.3667E+01
 MRCHDU: Convergence failed at  48  side 2    Res =  0.3527E+01
 Side 1  free  transition at x/c =  0.5839   60
 Side 2  free  transition at x/c =  0.1816   30

   3   rms: 0.1482E+00   max: 0.1307E+01   T at   30  2   RLX: 0.688
       a =  2.000      CL =  0.9989
      Cm = -0.1598     CD =  0.01318   =>   CDf =  0.00738    CDp =  0.00580

 Side 1  free  transition at x/c =  0.5870   60
 Side 2  free  transition at x/c =  0.1650   29

   4   rms: 0.1142E+00   max: -.9370E+00   D at   33  2   RLX: 0.534
       a =  2.000      CL =  1.0068
      Cm = -0.1587     CD =  0.01505   =>   CDf =  0.00861    CDp =  0.00644

 Side 1  free  transition at x/c =  0.5876   60
 Side 2  free  transition at x/c =  0.1705   30

   5   rms: 0.1230E+00   max: -.1066E+01   D at   33  2   RLX: 0.469
       a =  2.000      CL =  1.0056
      Cm = -0.1580     CD =  0.01436   =>   CDf =  0.00842    CDp =  0.00595

 Side 1  free  transition at x/c =  0.5879   60
 Side 2  free  transition at x/c =  0.1756   30

   6   rms: 0.6591E-01   max: -.9137E+00   D at   34  2   RLX: 0.547
       a =  2.000      CL =  1.0030
      Cm = -0.1577     CD =  0.01424   =>   CDf =  0.00830    CDp =  0.00594

 Side 1  free  transition at x/c =  0.5881   59
 Side 2  free  transition at x/c =  0.1751   31

   7   rms: 0.4104E-01   max: -.6890E+00   D at   35  2   RLX: 0.726
       a =  2.000      CL =  1.0029
      Cm = -0.1575     CD =  0.01432   =>   CDf =  0.00814    CDp =  0.00618

 Side 1  free  transition at x/c =  0.5882   59
 Side 2  free  transition at x/c =  0.1731   31

   8   rms: 0.2089E-01   max: -.3523E+00   D at   35  2
       a =  2.000      CL =  1.0033
      Cm = -0.1575     CD =  0.01442   =>   CDf =  0.00815    CDp =  0.00627

 Side 1  free  transition at x/c =  0.5882   59
 Side 2  free  transition at x/c =  0.1715   31

   9   rms: 0.2991E-02   max: -.5169E-01   D at   35  2
       a =  2.000      CL =  1.0034
      Cm = -0.1575     CD =  0.01444   =>   CDf =  0.00818    CDp =  0.00627

 Side 1  free  transition at x/c =  0.5882   59
 Side 2  free  transition at x/c =  0.1713   31

  10   rms: 0.6902E-04   max: -.9415E-03   D at   35  2
       a =  2.000      CL =  1.0034
      Cm = -0.1575     CD =  0.01445   =>   CDf =  0.00818    CDp =  0.00627

 Point added to stored polar  1
 Point written to save file  000274M0.04.log                                 
 Dump file unspecified or not available
 Calculating wake trajectory ...
 Calculating source influence matrix ...

 Solving BL system ...

 Side 1  free  transition at x/c =  0.5882   59
 Side 2  free  transition at x/c =  0.1713   31

   1   rms: 0.2117E+00   max: -.1671E+01   T at   31  2   RLX: 0.299
       a =  3.000      CL =  1.0327
      Cm = -0.1570     CD =  0.01426   =>   CDf =  0.00806    CDp =  0.00620

 Side 1  free  transition at x/c =  0.5822   60
 Side 2  free  transition at x/c =  0.1829   30

   2   rms: 0.1289E+00   max: -.1059E+01   T at   30  2   RLX: 0.472
       a =  3.000      CL =  1.0687
      Cm = -0.1569     CD =  0.01477   =>   CDf =  0.00818    CDp =  0.00659

 Side 1  free  transition at x/c =  0.5769   60
 Side 2  free  transition at x/c =  0.1982   31

   3   rms: 0.7029E-01   max: 0.6948E+00   D at   31  2
       a =  3.000      CL =  1.1138
      Cm = -0.1581     CD =  0.01471   =>   CDf =  0.00800    CDp =  0.00671

 Side 1  free  transition at x/c =  0.5731   60
 Side 2  free  transition at x/c =  0.2123   31

   4   rms: 0.1051E-01   max: 0.1284E+00   D at   31  2
       a =  3.000      CL =  1.1079
      Cm = -0.1569     CD =  0.01462   =>   CDf =  0.00809    CDp =  0.00652

 Side 1  free  transition at x/c =  0.5713   60
 Side 2  free  transition at x/c =  0.2121   31

   5   rms: 0.5123E-03   max: 0.3677E-02   D at   31  2
       a =  3.000      CL =  1.1084
      Cm = -0.1570     CD =  0.01460   =>   CDf =  0.00806    CDp =  0.00654

 Side 1  free  transition at x/c =  0.5713   60
 Side 2  free  transition at x/c =  0.2122   31

   6   rms: 0.2440E-05   max: -.1474E-04   D at   80  2
       a =  3.000      CL =  1.1084
      Cm = -0.1570     CD =  0.01460   =>   CDf =  0.00806    CDp =  0.00654

 Point added to stored polar  1
 Point written to save file  000274M0.04.log                                 
 Dump file unspecified or not available
 Calculating wake trajectory ...
 Calculating source influence matrix ...

 Solving BL system ...

 Side 1  free  transition at x/c =  0.5713   60
 Side 2  free  transition at x/c =  0.2122   31

   1   rms: 0.1735E+00   max: -.1414E+01   T at   31  2   RLX: 0.353
       a =  4.000      CL =  1.1434
      Cm = -0.1565     CD =  0.01470   =>   CDf =  0.00807    CDp =  0.00663

 Side 1  free  transition at x/c =  0.5644   60
 Side 2  free  transition at x/c =  0.2320   32

   2   rms: 0.1214E+00   max: -.8627E+00   T at   32  2   RLX: 0.580
       a =  4.000      CL =  1.1840
      Cm = -0.1566     CD =  0.01480   =>   CDf =  0.00786    CDp =  0.00694

 Side 1  free  transition at x/c =  0.5589   61
 Side 2  free  transition at x/c =  0.2546   33

   3   rms: 0.1083E+00   max: -.7907E+00   T at   33  2   RLX: 0.632
       a =  4.000      CL =  1.2067
      Cm = -0.1576     CD =  0.01488   =>   CDf =  0.00808    CDp =  0.00680

 Side 1  free  transition at x/c =  0.5571   60
 Side 2  free  transition at x/c =  0.2784   34

   4   rms: 0.4153E-01   max: -.5400E+00   C at   34  2   RLX: 0.926
       a =  4.000      CL =  1.2124
      Cm = -0.1568     CD =  0.01480   =>   CDf =  0.00795    CDp =  0.00685

 Side 1  free  transition at x/c =  0.5550   60
 Side 2  free  transition at x/c =  0.2951   35

   5   rms: 0.2755E-01   max: -.4777E+00   C at   35  2
       a =  4.000      CL =  1.2137
      Cm = -0.1569     CD =  0.01479   =>   CDf =  0.00785    CDp =  0.00694

 Side 1  free  transition at x/c =  0.5548   60
 Side 2  free  transition at x/c =  0.3088   36

   6   rms: 0.1723E-01   max: -.3275E+00   C at   36  2
       a =  4.000      CL =  1.2137
      Cm = -0.1569     CD =  0.01478   =>   CDf =  0.00781    CDp =  0.00696

 Side 1  free  transition at x/c =  0.5548   60
 Side 2  free  transition at x/c =  0.3159   36

   7   rms: 0.1120E-02   max: 0.2105E-01   C at   36  2
       a =  4.000      CL =  1.2137
      Cm = -0.1569     CD =  0.01478   =>   CDf =  0.00778    CDp =  0.00700

 Side 1  free  transition at x/c =  0.5548   60
 Side 2  free  transition at x/c =  0.3152   36

   8   rms: 0.8105E-05   max: -.1574E-03   C at   36  2
       a =  4.000      CL =  1.2137
      Cm = -0.1569     CD =  0.01478   =>   CDf =  0.00778    CDp =  0.00700

 Point added to stored polar  1
 Point written to save file  000274M0.04.log                                 
 Dump file unspecified or not available
 Calculating wake trajectory ...
 Calculating source influence matrix ...

 Solving BL system ...

 Side 1  free  transition at x/c =  0.5548   60
 Side 2  free  transition at x/c =  0.3152   36

   1   rms: 0.8247E+00   max: -.1613E+02   C at   36  2   RLX: 0.031
       a =  5.000      CL =  1.2165
      Cm = -0.1569     CD =  0.01477   =>   CDf =  0.00779    CDp =  0.00697

 Side 1  free  transition at x/c =  0.5543   60
 Side 2  free  transition at x/c =  0.3260   37

   2   rms: 0.1142E+01   max: -.2255E+02   C at   37  2   RLX: 0.022
       a =  5.000      CL =  1.2190
      Cm = -0.1569     CD =  0.01476   =>   CDf =  0.00777    CDp =  0.00699

 Side 1  free  transition at x/c =  0.5539   60
 Side 2  free  transition at x/c =  0.3343   37

   3   rms: 0.5934E+00   max: -.1131E+02   C at   37  2   RLX: 0.044
       a =  5.000      CL =  1.2236
      Cm = -0.1569     CD =  0.01478   =>   CDf =  0.00776    CDp =  0.00702

 Side 1  free  transition at x/c =  0.5532   60
 Side 2  free  transition at x/c =  0.6578   55

   4   rms: 0.2261E+02   max: -.3696E+03   C at   55  2   RLX: 0.001
       a =  5.000      CL =  1.2228
      Cm = -0.1563     CD =  0.01425   =>   CDf =  0.00716    CDp =  0.00708

 Side 1  free  transition at x/c =  0.5532   60
 Side 2  free  transition at x/c =  0.6745   56

   5   rms: 0.1775E+02   max: -.2933E+03   C at   56  2   RLX: 0.002
       a =  5.000      CL =  1.2227
      Cm = -0.1563     CD =  0.01422   =>   CDf =  0.00713    CDp =  0.00709

 Side 1  free  transition at x/c =  0.5532   60
 Side 2  free  transition at x/c =  0.6983   57

   6   rms: 0.1403E+02   max: -.2318E+03   C at   57  2   RLX: 0.002
       a =  5.000      CL =  1.2224
      Cm = -0.1562     CD =  0.01418   =>   CDf =  0.00708    CDp =  0.00710

 Side 1  free  transition at x/c =  0.5532   60
 Side 2  free  transition at x/c =  0.7230   59

   7   rms: 0.8205E+01   max: -.1484E+03   C at   59  2   RLX: 0.003
       a =  5.000      CL =  1.2219
      Cm = -0.1559     CD =  0.01413   =>   CDf =  0.00702    CDp =  0.00712

 Side 1  free  transition at x/c =  0.5531   60
 Side 2  free  transition at x/c =  0.7506   60

   8   rms: 0.7297E+01   max: -.1302E+03   C at   60  2   RLX: 0.004
       a =  5.000      CL =  1.2213
      Cm = -0.1557     CD =  0.01409   =>   CDf =  0.00695    CDp =  0.00714

 Side 1  free  transition at x/c =  0.5531   60
 Side 2  free  transition at x/c =  0.7779   62

   9   rms: 0.4411E+01   max: -.8507E+02   C at   62  2   RLX: 0.006
       a =  5.000      CL =  1.2203
      Cm = -0.1552     CD =  0.01404   =>   CDf =  0.00688    CDp =  0.00716

 Side 1  free  transition at x/c =  0.5530   60
 Side 2  free  transition at x/c =  0.7912   62

  10   rms: 0.3461E+01   max: -.6420E+02   C at   62  2   RLX: 0.008
       a =  5.000      CL =  1.2201
      Cm = -0.1551     CD =  0.01402   =>   CDf =  0.00685    CDp =  0.00717

 Side 1  free  transition at x/c =  0.5530   60
 Side 2  free  transition at x/c =  0.8285   64

  11   rms: 0.1216E+01   max: -.2315E+02   C at   64  2   RLX: 0.022
       a =  5.000      CL =  1.2193
      Cm = -0.1543     CD =  0.01397   =>   CDf =  0.00676    CDp =  0.00720

 Side 1  free  transition at x/c =  0.5527   60
 Side 2  free  transition at x/c =  0.8666   66

  12   rms: 0.3908E+00   max: 0.2590E+01   C at   68  2   RLX: 0.354
       a =  5.000      CL =  1.2424
      Cm = -0.1519     CD =  0.01415   =>   CDf =  0.00668    CDp =  0.00747

 MRCHDU: Convergence failed at  70  side 2    Res =  0.2945E+01
 MRCHDU: Convergence failed at  71  side 2    Res =  0.1350E+01
 MRCHDU: Convergence failed at  72  side 2    Res =  0.1972E+01
 MRCHDU: Convergence failed at  73  side 2    Res =  0.1524E+01
 Side 1  free  transition at x/c =  0.5473   60
 Side 2 forced transition at x/c =  1.0001   75

  13   rms: 0.1093E+00   max: 0.8277E+00   D at   66  2   RLX: 0.954
       a =  5.000      CL =  1.3056
      Cm = -0.1538     CD =  0.01429   =>   CDf =  0.00659    CDp =  0.00770

 Side 1  free  transition at x/c =  0.5400   60
 Side 2 forced transition at x/c =  1.0001   74

  14   rms: 0.1178E-01   max: 0.9424E-01   D at   66  2
       a =  5.000      CL =  1.3045
      Cm = -0.1530     CD =  0.01438   =>   CDf =  0.00673    CDp =  0.00765

 Side 1  free  transition at x/c =  0.5392   60
 Side 2 forced transition at x/c =  1.0001   74

  15   rms: 0.7816E-03   max: 0.6480E-02   D at   66  2
       a =  5.000      CL =  1.3042
      Cm = -0.1530     CD =  0.01439   =>   CDf =  0.00667    CDp =  0.00772

 Side 1  free  transition at x/c =  0.5392   60
 Side 2 forced transition at x/c =  1.0001   74

  16   rms: 0.5206E-05   max: -.3636E-04   D at   73  2
       a =  5.000      CL =  1.3042
      Cm = -0.1530     CD =  0.01439   =>   CDf =  0.00667    CDp =  0.00772

 Point added to stored polar  1
 Point written to save file  000274M0.04.log                                 
 Dump file unspecified or not available
 Calculating wake trajectory ...
 Calculating source influence matrix ...

 Solving BL system ...

 Side 1  free  transition at x/c =  0.5392   60
 Side 2 forced transition at x/c =  1.0001   74

   1   rms: 0.1570E+00   max: -.5075E+00   C at   74  2   RLX: 0.985
       a =  6.000      CL =  1.3930
      Cm = -0.1502     CD =  0.01522   =>   CDf =  0.00653    CDp =  0.00869

 Side 1  free  transition at x/c =  0.5220   60
 Side 2 forced transition at x/c =  1.0001   73

   2   rms: 0.3076E-01   max: -.2517E+00   D at   61  1
       a =  6.000      CL =  1.4102
      Cm = -0.1532     CD =  0.01532   =>   CDf =  0.00679    CDp =  0.00852

 Side 1  free  transition at x/c =  0.5237   60
 Side 2 forced transition at x/c =  1.0001   73

   3   rms: 0.6800E-02   max: -.7125E-01   C at   73  2
       a =  6.000      CL =  1.4075
      Cm = -0.1526     CD =  0.01530   =>   CDf =  0.00674    CDp =  0.00857

 Side 1  free  transition at x/c =  0.5234   60
 Side 2 forced transition at x/c =  1.0001   73

   4   rms: 0.2171E-03   max: -.2692E-02   C at   73  2
       a =  6.000      CL =  1.4073
      Cm = -0.1526     CD =  0.01530   =>   CDf =  0.00673    CDp =  0.00857

 Side 1  free  transition at x/c =  0.5234   60
 Side 2 forced transition at x/c =  1.0001   73

   5   rms: 0.2339E-05   max: 0.1193E-04   D at   76  2
       a =  6.000      CL =  1.4073
      Cm = -0.1526     CD =  0.01530   =>   CDf =  0.00673    CDp =  0.00857

 Point added to stored polar  1
 Point written to save file  000274M0.04.log                                 
 Dump file unspecified or not available
 Calculating wake trajectory ...
 Calculating source influence matrix ...

 Solving BL system ...

 Side 1  free  transition at x/c =  0.5234   60
 Side 2 forced transition at x/c =  1.0001   73

   1   rms: 0.1451E+00   max: -.5340E+00   C at   73  2   RLX: 0.936
       a =  7.000      CL =  1.4831
      Cm = -0.1485     CD =  0.01618   =>   CDf =  0.00657    CDp =  0.00961

 Side 1  free  transition at x/c =  0.5066   60
 Side 2 forced transition at x/c =  1.0001   72

   2   rms: 0.3799E-01   max: 0.2693E+00   C at   72  2
       a =  7.000      CL =  1.5128
      Cm = -0.1530     CD =  0.01636   =>   CDf =  0.00659    CDp =  0.00977

 Side 1  free  transition at x/c =  0.5077   61
 Side 2 forced transition at x/c =  1.0001   71

   3   rms: 0.8342E-02   max: -.1140E+00   C at   71  2
       a =  7.000      CL =  1.5087
      Cm = -0.1521     CD =  0.01631   =>   CDf =  0.00675    CDp =  0.00956

 Side 1  free  transition at x/c =  0.5077   61
 Side 2 forced transition at x/c =  1.0001   71

   4   rms: 0.9592E-03   max: -.1117E-01   D at    4  1
       a =  7.000      CL =  1.5086
      Cm = -0.1521     CD =  0.01631   =>   CDf =  0.00672    CDp =  0.00959

 Side 1  free  transition at x/c =  0.5076   61
 Side 2 forced transition at x/c =  1.0001   71

   5   rms: 0.1043E-04   max: -.7560E-04   C at   71  2
       a =  7.000      CL =  1.5086
      Cm = -0.1521     CD =  0.01631   =>   CDf =  0.00672    CDp =  0.00959

 Point added to stored polar  1
 Point written to save file  000274M0.04.log                                 
 Dump file unspecified or not available
 Calculating wake trajectory ...
 Calculating source influence matrix ...

 Solving BL system ...

 Side 1  free  transition at x/c =  0.5076   61
 Side 2 forced transition at x/c =  1.0001   71

   1   rms: 0.1400E+00   max: -.5850E+00   C at   71  2   RLX: 0.855
       a =  8.000      CL =  1.5671
      Cm = -0.1465     CD =  0.01721   =>   CDf =  0.00673    CDp =  0.01048

 Side 1  free  transition at x/c =  0.4918   61
 Side 2 forced transition at x/c =  1.0001   71

   2   rms: 0.4725E-01   max: 0.2633E+00   C at   71  2
       a =  8.000      CL =  1.6072
      Cm = -0.1513     CD =  0.01743   =>   CDf =  0.00646    CDp =  0.01096

 Side 1  free  transition at x/c =  0.4920   62
 Side 2 forced transition at x/c =  1.0001   70

   3   rms: 0.1386E-01   max: -.1248E+00   C at   70  2
       a =  8.000      CL =  1.6030
      Cm = -0.1504     CD =  0.01738   =>   CDf =  0.00656    CDp =  0.01082

 Side 1  free  transition at x/c =  0.4919   62
 Side 2 forced transition at x/c =  1.0001   70

   4   rms: 0.7798E-03   max: -.6706E-02   D at    4  1
       a =  8.000      CL =  1.6025
      Cm = -0.1503     CD =  0.01739   =>   CDf =  0.00657    CDp =  0.01082

 Side 1  free  transition at x/c =  0.4919   62
 Side 2 forced transition at x/c =  1.0001   70

   5   rms: 0.2296E-05   max: 0.1164E-04   D at   92  1
       a =  8.000      CL =  1.6025
      Cm = -0.1503     CD =  0.01739   =>   CDf =  0.00657    CDp =  0.01082

 Point added to stored polar  1
 Point written to save file  000274M0.04.log                                 
 Dump file unspecified or not available
 Calculating wake trajectory ...
 Calculating source influence matrix ...

 Solving BL system ...

 Side 1  free  transition at x/c =  0.4919   62
 Side 2 forced transition at x/c =  1.0001   70

   1   rms: 0.1659E+00   max: 0.1448E+00   T at   71  2
       a =  9.000      CL =  1.7296
      Cm = -0.1552     CD =  0.01891   =>   CDf =  0.00635    CDp =  0.01256

 MRCHDU: Convergence failed at  63  side 1    Res =  0.2357E+02
 MRCHDU: Convergence failed at  64  side 1    Res =  0.2668E+01
 MRCHDU: Convergence failed at  65  side 1    Res =  0.2464E+01
 MRCHDU: Convergence failed at  66  side 1    Res =  0.2711E+01
 MRCHDU: Convergence failed at  67  side 1    Res =  0.3025E+01
 MRCHDU: Convergence failed at  68  side 1    Res =  0.3493E+01
 MRCHDU: Convergence failed at  69  side 1    Res =  0.4147E+01
 MRCHDU: Convergence failed at  70  side 1    Res =  0.5051E+01
 MRCHDU: Convergence failed at  71  side 1    Res =  0.6371E+01
 MRCHDU: Convergence failed at  72  side 1    Res =  0.8157E+01
 MRCHDU: Convergence failed at  73  side 1    Res =  0.1109E+02
 MRCHDU: Convergence failed at  74  side 1    Res =  0.1577E+02
 MRCHDU: Convergence failed at  75  side 1    Res =  0.2693E+02
 MRCHDU: Convergence failed at  76  side 1    Res =  0.6475E+02
 MRCHDU: Convergence failed at  77  side 1    Res =  0.1868E+03
 MRCHDU: Convergence failed at  78  side 1    Res =  0.4820E+02
 MRCHDU: Convergence failed at  79  side 1    Res =  0.2999E+02
 MRCHDU: Convergence failed at  80  side 1    Res =  0.9676E+01
 MRCHDU: Convergence failed at  81  side 1    Res =  0.1530E+02
 MRCHDU: Convergence failed at  82  side 1    Res =  0.3215E+02
 MRCHDU: Convergence failed at  83  side 1    Res =  0.2325E+02
 MRCHDU: Convergence failed at  84  side 1    Res =  0.2745E+02
 MRCHDU: Convergence failed at  85  side 1    Res =  0.1939E+02
 MRCHDU: Convergence failed at  86  side 1    Res =  0.5074E+02
 MRCHDU: Convergence failed at  87  side 1    Res =  0.7861E+02
 MRCHDU: Convergence failed at  88  side 1    Res =  0.2853E+02
 MRCHDU: Convergence failed at  89  side 1    Res =  0.2440E+02
 MRCHDU: Convergence failed at  90  side 1    Res =  0.1660E+02
 MRCHDU: Convergence failed at  91  side 1    Res =  0.2969E+02
 MRCHDU: Convergence failed at  92  side 1    Res =  0.3449E+02
 MRCHDU: Convergence failed at  93  side 1    Res =  0.9449E+02
 Side 1  free  transition at x/c =  0.4739   61
 Side 2 forced transition at x/c =  1.0001   69

   2   rms: 0.9860E+00   max: 0.5441E+01   D at   71  2   RLX: 0.100
       a =  9.000      CL =  2.1450
      Cm = -0.3998     CD =  0.00482   =>   CDf =  0.00429    CDp =  0.00053

 Side 1  free  transition at x/c =  0.4683   61
 Side 2 forced transition at x/c =  1.0001   69

   3   rms: 0.3168E+00   max: 0.7527E+00   C at   69  2   RLX: 0.555
       a =  9.000      CL =  1.9222
      Cm = -0.2435     CD =  0.01323   =>   CDf =  0.00687    CDp =  0.00636

 Side 1  free  transition at x/c =  0.4714   62
 Side 2 forced transition at x/c =  1.0001   68

   4   rms: 0.2791E+00   max: -.1454E+01   D at   81  1   RLX: 0.344
       a =  9.000      CL =  1.8557
      Cm = -0.2066     CD =  0.01282   =>   CDf =  0.00640    CDp =  0.00643

 Side 1  free  transition at x/c =  0.4795   63
 Side 2 forced transition at x/c =  1.0001   68

   5   rms: 0.1604E+00   max: -.9341E+00   D at   82  1   RLX: 0.535
       a =  9.000      CL =  1.8207
      Cm = -0.1833     CD =  0.01382   =>   CDf =  0.00654    CDp =  0.00728

 Side 1  free  transition at x/c =  0.4775   63
 Side 2 forced transition at x/c =  1.0001   68

   6   rms: 0.1443E+00   max: -.7538E+00   C at   68  2   RLX: 0.663
       a =  9.000      CL =  1.7511
      Cm = -0.1624     CD =  0.01569   =>   CDf =  0.00661    CDp =  0.00907

 Side 1  free  transition at x/c =  0.4767   62
 Side 2 forced transition at x/c =  1.0001   69

   7   rms: 0.6679E-01   max: 0.2816E+00   D at   87  1
       a =  9.000      CL =  1.6972
      Cm = -0.1487     CD =  0.01828   =>   CDf =  0.00635    CDp =  0.01193

 Side 1  free  transition at x/c =  0.4752   62
 Side 2 forced transition at x/c =  1.0001   69

   8   rms: 0.5490E-02   max: -.3210E-01   D at   87  1
       a =  9.000      CL =  1.6914
      Cm = -0.1478     CD =  0.01859   =>   CDf =  0.00639    CDp =  0.01220

 Side 1  free  transition at x/c =  0.4754   62
 Side 2 forced transition at x/c =  1.0001   69

   9   rms: 0.9919E-04   max: -.9598E-03   D at   62  1
       a =  9.000      CL =  1.6914
      Cm = -0.1478     CD =  0.01859   =>   CDf =  0.00638    CDp =  0.01221

 Point added to stored polar  1
 Point written to save file  000274M0.04.log                                 
 Dump file unspecified or not available
 Calculating wake trajectory ...
 Calculating source influence matrix ...

 Solving BL system ...

 Side 1  free  transition at x/c =  0.4754   62
 Side 2 forced transition at x/c =  1.0001   69

   1   rms: 0.1738E+00   max: 0.7033E+00   T at   62  1   RLX: 0.928
       a = 10.000      CL =  1.8125
      Cm = -0.1528     CD =  0.01974   =>   CDf =  0.00590    CDp =  0.01385

 Side 1  free  transition at x/c =  0.4404   61
 Side 2 forced transition at x/c =  1.0001   67

   2   rms: 0.1592E+00   max: -.2100E+01   T at    2  1   RLX: 0.238
       a = 10.000      CL =  1.7930
      Cm = -0.1497     CD =  0.01876   =>   CDf =  0.00689    CDp =  0.01187

 Side 1  free  transition at x/c =  0.4418   61
 Side 2 forced transition at x/c =  1.0001   68

   3   rms: 0.9728E-01   max: -.8678E+00   D at    2  2   RLX: 0.576
       a = 10.000      CL =  1.7594
      Cm = -0.1429     CD =  0.01937   =>   CDf =  0.00642    CDp =  0.01295

 Side 1  free  transition at x/c =  0.4453   61
 Side 2 forced transition at x/c =  1.0001   68

   4   rms: 0.2625E-01   max: -.1952E+00   D at   61  1
       a = 10.000      CL =  1.7384
      Cm = -0.1377     CD =  0.01983   =>   CDf =  0.00624    CDp =  0.01359

 Side 1  free  transition at x/c =  0.4491   61
 Side 2 forced transition at x/c =  1.0001   68

   5   rms: 0.1880E-02   max: 0.2537E-01   D at   72  2
       a = 10.000      CL =  1.7380
      Cm = -0.1376     CD =  0.01984   =>   CDf =  0.00614    CDp =  0.01371

 Side 1  free  transition at x/c =  0.4488   61
 Side 2 forced transition at x/c =  1.0001   68

   6   rms: 0.2180E-04   max: 0.2455E-03   D at   73  2
       a = 10.000      CL =  1.7380
      Cm = -0.1376     CD =  0.01984   =>   CDf =  0.00614    CDp =  0.01371

 Point added to stored polar  1
 Point written to save file  000274M0.04.log                                 
 Dump file unspecified or not available
 Calculating wake trajectory ...
 Calculating source influence matrix ...

 Solving BL system ...

 Side 1  free  transition at x/c =  0.4488   61
 Side 2 forced transition at x/c =  1.0001   68

   1   rms: 0.1320E+00   max: 0.6065E+00   T at   61  1
       a = 11.000      CL =  1.7801
      Cm = -0.1274     CD =  0.02141   =>   CDf =  0.00586    CDp =  0.01555

 Side 1  free  transition at x/c =  0.4189   60
 Side 2 forced transition at x/c =  1.0001   67

   2   rms: 0.6555E-01   max: -.5185E+00   D at   61  1   RLX: 0.964
       a = 11.000      CL =  1.7816
      Cm = -0.1281     CD =  0.02152   =>   CDf =  0.00596    CDp =  0.01556

 Side 1  free  transition at x/c =  0.4227   60
 Side 2 forced transition at x/c =  1.0001   67

   3   rms: 0.6505E-02   max: -.4798E-01   D at   63  1
       a = 11.000      CL =  1.7784
      Cm = -0.1280     CD =  0.02202   =>   CDf =  0.00594    CDp =  0.01608

 Side 1  free  transition at x/c =  0.4206   60
 Side 2 forced transition at x/c =  1.0001   67

   4   rms: 0.4321E-03   max: -.2361E-02   D at   89  1
       a = 11.000      CL =  1.7785
      Cm = -0.1280     CD =  0.02201   =>   CDf =  0.00595    CDp =  0.01606

 Side 1  free  transition at x/c =  0.4206   60
 Side 2 forced transition at x/c =  1.0001   67

   5   rms: 0.2146E-04   max: 0.8068E-04   C at   67  2
       a = 11.000      CL =  1.7786
      Cm = -0.1280     CD =  0.02201   =>   CDf =  0.00595    CDp =  0.01606

 Point added to stored polar  1
 Point written to save file  000274M0.04.log                                 
 Dump file unspecified or not available
 Calculating wake trajectory ...
 Calculating source influence matrix ...

 Solving BL system ...

 Side 1  free  transition at x/c =  0.4206   60
 Side 2 forced transition at x/c =  1.0001   67

   1   rms: 0.1322E+00   max: 0.4691E+00   T at   60  1   RLX: 0.907
       a = 12.000      CL =  1.8036
      Cm = -0.1187     CD =  0.02504   =>   CDf =  0.00565    CDp =  0.01938

 Side 1  free  transition at x/c =  0.3922   59
 Side 2 forced transition at x/c =  1.0001   66

   2   rms: 0.4739E-01   max: -.4792E+00   D at   60  1
       a = 12.000      CL =  1.8162
      Cm = -0.1195     CD =  0.02500   =>   CDf =  0.00584    CDp =  0.01916

 Side 1  free  transition at x/c =  0.3950   60
 Side 2 forced transition at x/c =  1.0001   66

   3   rms: 0.8049E-02   max: -.5531E-01   D at   61  1
       a = 12.000      CL =  1.8146
      Cm = -0.1195     CD =  0.02539   =>   CDf =  0.00565    CDp =  0.01974

 Side 1  free  transition at x/c =  0.3930   60
 Side 2 forced transition at x/c =  1.0001   66

   4   rms: 0.1210E-02   max: -.1010E-01   D at   61  1
       a = 12.000      CL =  1.8152
      Cm = -0.1196     CD =  0.02537   =>   CDf =  0.00572    CDp =  0.01965

 Side 1  free  transition at x/c =  0.3929   60
 Side 2 forced transition at x/c =  1.0001   66

   5   rms: 0.5791E-04   max: -.2669E-03   D at   87  1
       a = 12.000      CL =  1.8153
      Cm = -0.1196     CD =  0.02537   =>   CDf =  0.00572    CDp =  0.01964

 Point added to stored polar  1
 Point written to save file  000274M0.04.log                                 
 Dump file unspecified or not available
 Calculating wake trajectory ...
 Calculating source influence matrix ...

 Solving BL system ...

 Side 1  free  transition at x/c =  0.3928   60
 Side 2 forced transition at x/c =  1.0001   66

   1   rms: 0.1390E+00   max: -.6471E+00   D at   61  1   RLX: 0.773
       a = 13.000      CL =  1.8536
      Cm = -0.1148     CD =  0.02798   =>   CDf =  0.00541    CDp =  0.02257

 Side 1  free  transition at x/c =  0.3626   59
 Side 2 forced transition at x/c =  1.0001   65

   2   rms: 0.6643E-01   max: 0.3958E+00   D at   60  1
       a = 13.000      CL =  1.8303
      Cm = -0.1107     CD =  0.03122   =>   CDf =  0.00558    CDp =  0.02564

 Side 1  free  transition at x/c =  0.3576   58
 Side 2 forced transition at x/c =  1.0001   65

   3   rms: 0.6762E-02   max: 0.8284E-01   D at   85  1
       a = 13.000      CL =  1.8306
      Cm = -0.1108     CD =  0.03102   =>   CDf =  0.00544    CDp =  0.02558

 Side 1  free  transition at x/c =  0.3576   58
 Side 2 forced transition at x/c =  1.0001   65

   4   rms: 0.2187E-03   max: -.3459E-02   D at   85  1
       a = 13.000      CL =  1.8306
      Cm = -0.1108     CD =  0.03099   =>   CDf =  0.00541    CDp =  0.02558

 Side 1  free  transition at x/c =  0.3576   58
 Side 2 forced transition at x/c =  1.0001   65

   5   rms: 0.7528E-05   max: -.5416E-04   D at   75  2
       a = 13.000      CL =  1.8306
      Cm = -0.1108     CD =  0.03099   =>   CDf =  0.00541    CDp =  0.02558

 Point added to stored polar  1
 Point written to save file  000274M0.04.log                                 
 Dump file unspecified or not available
 Calculating wake trajectory ...
 Calculating source influence matrix ...

 Solving BL system ...

 Side 1  free  transition at x/c =  0.3576   58
 Side 2 forced transition at x/c =  1.0001   65

   1   rms: 0.1413E+00   max: 0.5200E+00   D at   81  1   RLX: 0.669
       a = 14.000      CL =  1.8377
      Cm = -0.1061     CD =  0.03597   =>   CDf =  0.00542    CDp =  0.03055

 Side 1  free  transition at x/c =  0.3180   56
 Side 2 forced transition at x/c =  1.0001   65

   2   rms: 0.5767E-01   max: 0.3539E+00   D at   82  1
       a = 14.000      CL =  1.8233
      Cm = -0.1028     CD =  0.04027   =>   CDf =  0.00511    CDp =  0.03516

 Side 1  free  transition at x/c =  0.3046   56
 Side 2 forced transition at x/c =  1.0001   64

   3   rms: 0.9656E-02   max: 0.1010E+00   D at   81  1
       a = 14.000      CL =  1.8191
      Cm = -0.1026     CD =  0.04042   =>   CDf =  0.00528    CDp =  0.03514

 Side 1  free  transition at x/c =  0.3065   56
 Side 2 forced transition at x/c =  1.0001   64

   4   rms: 0.1103E-02   max: -.1121E-01   D at    4  1
       a = 14.000      CL =  1.8188
      Cm = -0.1026     CD =  0.04038   =>   CDf =  0.00524    CDp =  0.03514

 Side 1  free  transition at x/c =  0.3067   56
 Side 2 forced transition at x/c =  1.0001   64

   5   rms: 0.1117E-04   max: -.1031E-03   C at   64  2
       a = 14.000      CL =  1.8188
      Cm = -0.1026     CD =  0.04038   =>   CDf =  0.00524    CDp =  0.03514

 Point added to stored polar  1
 Point written to save file  000274M0.04.log                                 
 Dump file unspecified or not available
 Calculating wake trajectory ...
 Calculating source influence matrix ...

 Solving BL system ...

 Side 1  free  transition at x/c =  0.3067   56
 Side 2 forced transition at x/c =  1.0001   64

   1   rms: 0.1671E+00   max: 0.1102E+01   C at   56  1   RLX: 0.551
       a = 15.000      CL =  1.8055
      Cm = -0.0990     CD =  0.04763   =>   CDf =  0.00525    CDp =  0.04238

 Side 1  free  transition at x/c =  0.2556   53
 Side 2 forced transition at x/c =  1.0001   64

   2   rms: 0.1011E+00   max: 0.6398E+00   D at   78  1
       a = 15.000      CL =  1.7623
      Cm = -0.0954     CD =  0.05741   =>   CDf =  0.00547    CDp =  0.05194

 Side 1  free  transition at x/c =  0.2196   50
 Side 2 forced transition at x/c =  1.0001   64

   3   rms: 0.2574E-01   max: -.2692E+00   C at   50  1
       a = 15.000      CL =  1.7519
      Cm = -0.0950     CD =  0.05777   =>   CDf =  0.00555    CDp =  0.05222

 Side 1  free  transition at x/c =  0.2304   51
 Side 2 forced transition at x/c =  1.0001   64

   4   rms: 0.6885E-02   max: 0.1317E+00   C at   51  1
       a = 15.000      CL =  1.7540
      Cm = -0.0950     CD =  0.05718   =>   CDf =  0.00536    CDp =  0.05181

 Side 1  free  transition at x/c =  0.2266   51
 Side 2 forced transition at x/c =  1.0001   64

   5   rms: 0.6878E-03   max: -.1232E-01   C at   51  1
       a = 15.000      CL =  1.7537
      Cm = -0.0950     CD =  0.05723   =>   CDf =  0.00542    CDp =  0.05181

 Side 1  free  transition at x/c =  0.2270   51
 Side 2 forced transition at x/c =  1.0001   64

   6   rms: 0.1157E-04   max: -.1571E-03   C at   51  1
       a = 15.000      CL =  1.7537
      Cm = -0.0950     CD =  0.05722   =>   CDf =  0.00541    CDp =  0.05181

 Point added to stored polar  1
 Point written to save file  000274M0.04.log                                 
 Dump file unspecified or not available

.OPERva   c>  
 XFOIL   c>  
0.1
resp: 
 ===================================================
  XFOIL Version 6.97
  Copyright (C) 2000   Mark Drela, Harold Youngren

  This software comes with ABSOLUTELY NO WARRANTY,
    subject to the GNU General Public License.

  Caveat computor
 ===================================================

 File  xfoil.def  not found

   QUIT    Exit program

  .OPER    Direct operating point(s)
  .MDES    Complex mapping design routine
  .QDES    Surface speed design routine
  .GDES    Geometry design routine

   SAVE f  Write airfoil to labeled coordinate file
   PSAV f  Write airfoil to plain coordinate file
   ISAV f  Write airfoil to ISES coordinate file
   MSAV f  Write airfoil to MSES coordinate file
   REVE    Reverse written-airfoil node ordering
   DELI i  Change written-airfoil file delimiters

   LOAD f  Read buffer airfoil from coordinate file
   NACA i  Set NACA 4,5-digit airfoil and buffer airfoil
   INTE    Set buffer airfoil by interpolating two airfoils
   NORM    Buffer airfoil normalization toggle
   HALF    Halve the number of points in buffer airfoil
   XYCM rr Change CM reference location, currently  0.25000 0.00000

   BEND    Display structural properties of current airfoil

   PCOP    Set current-airfoil panel nodes directly from buffer airfoil points
   PANE    Set current-airfoil panel nodes ( 160 ) based on curvature
  .PPAR    Show/change paneling

  .PLOP    Plotting options

   WDEF f  Write  current-settings file
   RDEF f  Reread current-settings file
   NAME s  Specify new airfoil name
   NINC    Increment name version number

   Z       Zoom    | (available in all menus)
   U       Unzoom  | 

 XFOIL   c>   ...............................................

  G raphics-enable flag:        T
  S ize of plot object          10.00"
  A spect ratio of plot object   0.5500
  P age dimensions              11.00 x  8.50"
  M argins from page edges       0.00",  0.00"
  F ont size (relative)          0.0150
  W indow/screen size fraction   0.8000
  B lowup input method:        Cursor    
  O rientation of plot:        Landscape 
  C olor PostScript output?     F

      Option, Value   (or <Return>)    c>   ...............................................

  G raphics-enable flag:        F
  S ize of plot object          10.00"
  A spect ratio of plot object   0.5500
  P age dimensions              11.00 x  8.50"
  M argins from page edges       0.00",  0.00"
  F ont size (relative)          0.0150
  W indow/screen size fraction   0.8000
  B lowup input method:        Cursor    
  O rientation of plot:        Landscape 
  C olor PostScript output?     F

      Option, Value   (or <Return>)    c>  
 XFOIL   c>  
 Labeled airfoil file.  Name:  000274                                          

 Number of input coordinate points: 200
 Clockwise ordering
 Max thickness =     0.127641  at x =   0.391
 Max camber    =     0.079850  at x =   0.376

  LE  x,y  =  -0.00001   0.00052  |   Chord =   0.99988
  TE  x,y  =   0.99988   0.00005  |

 Current airfoil nodes set from buffer airfoil nodes ( 200 )

 XFOIL   c>  
 You are working with the buffer airfoil

.GDES   c>  
  i       x        y      angle
   2   0.9990   0.0004    0.032
   3   0.9978   0.0009    0.070
   4   0.9961   0.0016    0.101
   5   0.9938   0.0025    0.068
   6   0.9911   0.0036    0.134
   7   0.9880   0.0049    0.148
   8   0.9843   0.0063    0.144
   9   0.9801   0.0079    0.169
  10   0.9755   0.0098    0.197
  11   0.9704   0.0117    0.192
  12   0.9649   0.0138    0.205
  13   0.9589   0.0161    0.227
  14   0.9524   0.0185    0.237
  15   0.9455   0.0211    0.242
  16   0.9382   0.0238    0.244
  17   0.9304   0.0266    0.253
  18   0.9222   0.0295    0.260
  19   0.9135   0.0325    0.259
  20   0.9045   0.0356    0.267
  21   0.8951   0.0388    0.266
  22   0.8853   0.0421    0.268
  23   0.8751   0.0455    0.275
  24   0.8645   0.0489    0.262
  25   0.8536   0.0524    0.272
  26   0.8423   0.0559    0.276
  27   0.8307   0.0595    0.265
  28   0.8187   0.0631    0.275
  29   0.8065   0.0667    0.278
  30   0.7939   0.0704    0.275
  31   0.7810   0.0741    0.282
  32   0.7679   0.0778    0.290
  33   0.7545   0.0815    0.296
  34   0.7409   0.0852    0.306
  35   0.7270   0.0889    0.316
  36   0.7129   0.0926    0.326
  37   0.6986   0.0962    0.348
  38   0.6841   0.0998    0.356
  39   0.6694   0.1033    0.388
  40   0.6545   0.1068    0.396
  41   0.6395   0.1102    0.430
  42   0.6243   0.1135    0.454
  43   0.6091   0.1167    0.481
  44   0.5937   0.1198    0.516
  45   0.5782   0.1227    0.547
  46   0.5627   0.1256    0.582
  47   0.5471   0.1282    0.619
  48   0.5314   0.1308    0.653
  49   0.5157   0.1331    0.702
  50   0.5000   0.1352    0.732
  51   0.4843   0.1372    0.779
  52   0.4686   0.1389    0.817
  53   0.4529   0.1404    0.862
  54   0.4373   0.1416    0.898
  55   0.4218   0.1426    0.938
  56   0.4063   0.1433    0.980
  57   0.3909   0.1438    1.015
  58   0.3757   0.1440    1.045
  59   0.3605   0.1439    1.087
  60   0.3455   0.1435    1.104
  61   0.3306   0.1429    1.141
  62   0.3159   0.1420    1.156
  63   0.3014   0.1407    1.176
  64   0.2871   0.1392    1.191
  65   0.2730   0.1375    1.208
  66   0.2591   0.1354    1.209
  67   0.2455   0.1331    1.217
  68   0.2321   0.1305    1.217
  69   0.2190   0.1278    1.215
  70   0.2061   0.1247    1.205
  71   0.1935   0.1215    1.208
  72   0.1813   0.1181    1.189
  73   0.1693   0.1144    1.188
  74   0.1577   0.1107    1.183
  75   0.1464   0.1067    1.161
  76   0.1355   0.1027    1.169
  77   0.1249   0.0985    1.164
  78   0.1147   0.0942    1.166
  79   0.1049   0.0899    1.183
  80   0.0955   0.0855    1.186
  81   0.0865   0.0810    1.222
  82   0.0778   0.0765    1.264
  83   0.0696   0.0720    1.319
  84   0.0618   0.0675    1.381
  85   0.0545   0.0631    1.480
  86   0.0476   0.0586    1.606
  87   0.0411   0.0541    1.747
  88   0.0351   0.0497    1.940
  89   0.0296   0.0454    2.159
  90   0.0245   0.0410    2.446
  91   0.0199   0.0368    2.783
  92   0.0157   0.0325    3.194
  93   0.0120   0.0283    3.644
  94   0.0089   0.0242    4.214
  95   0.0062   0.0201    4.802
  96   0.0039   0.0160    5.428
  97   0.0022   0.0120    6.067
  98   0.0010   0.0080    6.576
  99   0.0002   0.0040    6.944
 100   0.0000   0.0000    9.672
 101   0.0002  -0.0023   11.948
 102   0.0010  -0.0046   11.149
 103   0.0022  -0.0068   10.078
 104   0.0039  -0.0089    8.876
 105   0.0062  -0.0109    7.749
 106   0.0089  -0.0127    6.734
 107   0.0120  -0.0143    5.824
 108   0.0157  -0.0158    5.061
 109   0.0199  -0.0170    4.402
 110   0.0245  -0.0180    3.808
 111   0.0296  -0.0187    3.321
 112   0.0351  -0.0192    2.872
 113   0.0411  -0.0194    2.483
 114   0.0476  -0.0194    2.134
 115   0.0545  -0.0191    1.820
 116   0.0618  -0.0185    1.540
 117   0.0696  -0.0177    1.274
 118   0.0778  -0.0166    1.046
 119   0.0865  -0.0154    0.818
 120   0.0955  -0.0140    0.630
 121   0.1049  -0.0123    0.443
 122   0.1147  -0.0106    0.272
 123   0.1249  -0.0087    0.120
 124   0.1355  -0.0067   -0.029
 125   0.1464  -0.0047   -0.150
 126   0.1577  -0.0027   -0.277
 127   0.1693  -0.0006   -0.377
 128   0.1813   0.0014   -0.476
 129   0.1935   0.0034   -0.557
 130   0.2061   0.0053   -0.629
 131   0.2190   0.0072   -0.682
 132   0.2321   0.0089   -0.737
 133   0.2455   0.0104   -0.773
 134   0.2591   0.0118   -0.791
 135   0.2730   0.0130   -0.810
 136   0.2871   0.0141   -0.803
 137   0.3014   0.0149   -0.802
 138   0.3159   0.0156   -0.780
 139   0.3306   0.0161   -0.749
 140   0.3455   0.0164   -0.717
 141   0.3605   0.0165   -0.673
 142   0.3757   0.0164   -0.617
 143   0.3909   0.0162   -0.563
 144   0.4063   0.0158   -0.505
 145   0.4218   0.0152   -0.439
 146   0.4373   0.0146   -0.375
 147   0.4529   0.0138   -0.306
 148   0.4686   0.0130   -0.234
 149   0.4843   0.0121   -0.171
 150   0.5000   0.0111   -0.105
 151   0.5157   0.0101   -0.040
 152   0.5314   0.0091    0.022
 153   0.5471   0.0081    0.077
 154   0.5627   0.0072    0.129
 155   0.5782   0.0062    0.179
 156   0.5937   0.0054    0.222
 157   0.6091   0.0046    0.259
 158   0.6243   0.0038    0.284
 159   0.6395   0.0032    0.309
 160   0.6545   0.0026    0.332
 161   0.6694   0.0021    0.334
 162   0.6841   0.0017    0.340
 163   0.6986   0.0014    0.340
 164   0.7129   0.0012    0.329
 165   0.7270   0.0011    0.310
 166   0.7409   0.0011    0.291
 167   0.7545   0.0011    0.263
 168   0.7679   0.0012    0.239
 169   0.7810   0.0013    0.192
 170   0.7939   0.0015    0.165
 171   0.8065   0.0017    0.113
 172   0.8187   0.0020    0.072
 173   0.8307   0.0022    0.033
 174   0.8423   0.0025   -0.020
 175   0.8536   0.0027   -0.062
 176   0.8645   0.0029   -0.114
 177   0.8751   0.0031   -0.149
 178   0.8853   0.0032   -0.201
 179   0.8951   0.0033   -0.228
 180   0.9045   0.0034   -0.273
 181   0.9135   0.0034   -0.305
 182   0.9222   0.0034   -0.329
 183   0.9304   0.0033   -0.351
 184   0.9382   0.0032   -0.377
 185   0.9455   0.0031   -0.384
 186   0.9524   0.0029   -0.385
 187   0.9589   0.0027   -0.397
 188   0.9649   0.0024   -0.392
 189   0.9704   0.0021   -0.376
 190   0.9755   0.0019   -0.369
 191   0.9801   0.0016   -0.346
 192   0.9843   0.0013   -0.317
 193   0.9880   0.0010   -0.288
 194   0.9911   0.0008   -0.274
 195   0.9938   0.0006   -0.190
 196   0.9961   0.0004   -0.205
 197   0.9978   0.0002   -0.103
 198   0.9990   0.0001   -0.163
 199   0.9998   0.0000    0.084

 Maximum panel corner angle = 11.948   at  i,x,y  = 101   0.0002  -0.0023

 Enter corner angle criterion for refinement (deg):   5.974
 Enter type of spline parameter (1=uniform, 2=arclength):   1
 Enter refinement x limits:  -0.10000   1.10000
 Number of points added:           20
 Max thickness =     0.127642  at x =   0.391
 Max camber    =     0.080175  at x =   0.376

 Maximum panel corner angle =  5.079   at  i,x,y  = 109   0.0001  -0.0016

.GDES   c>  
 Buffer airfoil is not identical to current airfoil

 XFOIL   c>  
 Blunt trailing edge.  Gap =  0.00027

 Paneling parameters used...
   Number of panel nodes       160
   Panel bunching parameter    1.000
   TE/LE panel density ratio   0.150
   Refined-area/LE panel density ratio    0.200
   Top    side refined area x/c limits  1.000 1.000
   Bottom side refined area x/c limits  1.000 1.000

 XFOIL   c>  
.OPERi   c>   Current iteration limit:          20

Enter new iteration limit   i>  
Enter new iteration limit   i>  
Enter new iteration limit   i>  
.OPERi   c>  
 M  =    0.0000
 Re =  0.3000E+06

.OPERv   c>  
 Sonic Cp =    -66.86      Sonic Q/Qinf =     9.138


.OPERv   c>  
 Polar  1 newly created for accumulation
 Airfoil archived with polar: 000274                                          

Enter  polar save filename  OR  <return> for no file   s>  
 New polar save file available

Enter  polar dump filename  OR  <return> for no file   s>  
 Polar dump file will NOT be written

 Polar accumulation enabled

.OPERva   c>   Calculating unit vorticity distributions ...
 Calculating wake trajectory ...
 Calculating source influence matrix ...

 Solving BL system ...

 Initializing BL ...
    side            1  ...
 MRCHUE: Inverse mode at  51     Hk =   4.298
 MRCHUE: Inverse mode at  52     Hk =   5.012
 MRCHUE: Inverse mode at  53     Hk =   5.712
 MRCHUE: Inverse mode at  54     Hk =   6.403
 MRCHUE: Inverse mode at  55     Hk =   7.086
 MRCHUE: Inverse mode at  56     Hk =   7.765
 MRCHUE: Inverse mode at  57     Hk =   8.439
 MRCHUE: Inverse mode at  58     Hk =   9.111
 MRCHUE: Inverse mode at  59     Hk =   7.371
 MRCHUE: Inverse mode at  60     Hk =   5.024
 MRCHUE: Inverse mode at  61     Hk =   3.535
 MRCHUE: Convergence failed at  85  side 1    Res =  0.4891E+02
    side            2  ...
 MRCHUE: Inverse mode at  24     Hk =   4.235
 MRCHUE: Inverse mode at  25     Hk =   5.117
 MRCHUE: Inverse mode at  26     Hk =   6.028
 MRCHUE: Inverse mode at  27     Hk =   6.960
 MRCHUE: Inverse mode at  28     Hk =   7.888
 MRCHUE: Inverse mode at  29     Hk =   8.790
 MRCHUE: Inverse mode at  30     Hk =   9.657
 MRCHUE: Inverse mode at  31     Hk =   7.076
 MRCHUE: Inverse mode at  32     Hk =   4.588
 MRCHUE: Inverse mode at  33     Hk =   3.089
 MRCHUE: Convergence failed at  77  side 2    Res =  0.3349E+01

 MRCHDU: Convergence failed at  85  side 1    Res =  0.4231E+02
 MRCHDU: Convergence failed at  77  side 2    Res =  0.1423E+01
 Side 1  free  transition at x/c =  0.5662   59
 Side 2  free  transition at x/c =  0.1920   31

   1   rms: 0.6127E+00   max: 0.3157E+01   D at   79  2   RLX: 0.475
       a =  2.000      CL =  1.1170
      Cm = -0.1835     CD =  0.00740   =>   CDf =  0.00846    CDp = -0.00106

 Side 1  free  transition at x/c =  0.5746   59
 Side 2  free  transition at x/c =  0.1869   31

   2   rms: 0.1881E+00   max: 0.7664E+00   D at   83  2   RLX: 0.742
       a =  2.000      CL =  1.0519
      Cm = -0.1679     CD =  0.01255   =>   CDf =  0.00856    CDp =  0.00399

 MRCHDU: Convergence failed at  60  side 1    Res =  0.1424E+02
 MRCHDU: Convergence failed at  61  side 1    Res =  0.6173E+01
 MRCHDU: Convergence failed at  62  side 1    Res =  0.3039E+01
 MRCHDU: Convergence failed at  63  side 1    Res =  0.5515E+01
 MRCHDU: Convergence failed at  64  side 1    Res =  0.1004E+02
 MRCHDU: Convergence failed at  65  side 1    Res =  0.1670E+02
 MRCHDU: Convergence failed at  66  side 1    Res =  0.2433E+02
 MRCHDU: Convergence failed at  67  side 1    Res =  0.2984E+02
 MRCHDU: Convergence failed at  68  side 1    Res =  0.3114E+02
 MRCHDU: Convergence failed at  69  side 1    Res =  0.2901E+02
 MRCHDU: Convergence failed at  70  side 1    Res =  0.2530E+02
 MRCHDU: Convergence failed at  71  side 1    Res =  0.2192E+02
 MRCHDU: Convergence failed at  72  side 1    Res =  0.1909E+02
 MRCHDU: Convergence failed at  73  side 1    Res =  0.1679E+02
 MRCHDU: Convergence failed at  74  side 1    Res =  0.1486E+02
 MRCHDU: Convergence failed at  75  side 1    Res =  0.1329E+02
 MRCHDU: Convergence failed at  76  side 1    Res =  0.8923E+01
 MRCHDU: Convergence failed at  77  side 1    Res =  0.1057E+02
 MRCHDU: Convergence failed at  78  side 1    Res =  0.1291E+02
 MRCHDU: Convergence failed at  79  side 1    Res =  0.1649E+02
 MRCHDU: Convergence failed at  80  side 1    Res =  0.2370E+02
 MRCHDU: Convergence failed at  81  side 1    Res =  0.3974E+02
 MRCHDU: Convergence failed at  82  side 1    Res =  0.1600E+03
 MRCHDU: Convergence failed at  83  side 1    Res =  0.6835E+02
 MRCHDU: Convergence failed at  84  side 1    Res =  0.2749E+02
 MRCHDU: Convergence failed at  85  side 1    Res =  0.2222E+02
 MRCHDU: Convergence failed at  31  side 2    Res =  0.5447E+01
 MRCHDU: Convergence failed at  32  side 2    Res =  0.4514E+01
 MRCHDU: Convergence failed at  33  side 2    Res =  0.3718E+02
 MRCHDU: Convergence failed at  34  side 2    Res =  0.3867E+01
 MRCHDU: Convergence failed at  35  side 2    Res =  0.4327E+01
 MRCHDU: Convergence failed at  36  side 2    Res =  0.4799E+01
 MRCHDU: Convergence failed at  37  side 2    Res =  0.5013E+01
 MRCHDU: Convergence failed at  38  side 2    Res =  0.4960E+01
 MRCHDU: Convergence failed at  39  side 2    Res =  0.4663E+01
 MRCHDU: Convergence failed at  40  side 2    Res =  0.4207E+01
 MRCHDU: Convergence failed at  41  side 2    Res =  0.3677E+01
 MRCHDU: Convergence failed at  42  side 2    Res =  0.3105E+01
 MRCHDU: Convergence failed at  43  side 2    Res =  0.2599E+01
 MRCHDU: Convergence failed at  44  side 2    Res =  0.4283E+01
 MRCHDU: Convergence failed at  45  side 2    Res =  0.3977E+01
 MRCHDU: Convergence failed at  46  side 2    Res =  0.4051E+01
 MRCHDU: Convergence failed at  47  side 2    Res =  0.3916E+01
 MRCHDU: Convergence failed at  48  side 2    Res =  0.6009E+01
 Side 1  free  transition at x/c =  0.5879   60
 Side 2  free  transition at x/c =  0.1810   30

   3   rms: 0.6454E+00   max: 0.2697E+01   D at   85  1   RLX: 0.556
       a =  2.000      CL =  1.0830
      Cm = -0.2332     CD =  0.00665   =>   CDf =  0.00577    CDp =  0.00088

 MRCHDU: Convergence failed at  31  side 2    Res =  0.6958E+02
 Side 1  free  transition at x/c =  0.5730   58
 Side 2  free  transition at x/c =  0.1596   30

   4   rms: 0.2697E+00   max: -.1092E+01   D at   39  2   RLX: 0.458
       a =  2.000      CL =  1.0029
      Cm = -0.1767     CD =  0.01773   =>   CDf =  0.00770    CDp =  0.01003

 Side 1  free  transition at x/c =  0.5831   59
 Side 2  free  transition at x/c =  0.1642   30

   5   rms: 0.5656E+00   max: -.2967E+01   T at   30  2   RLX: 0.169
       a =  2.000      CL =  1.0176
      Cm = -0.1705     CD =  0.01456   =>   CDf =  0.00753    CDp =  0.00703

 Side 1  free  transition at x/c =  0.5861   59
 Side 2  free  transition at x/c =  0.1777   31

   6   rms: 0.6056E+00   max: -.3158E+01   D at   77  1   RLX: 0.158
       a =  2.000      CL =  1.0628
      Cm = -0.1755     CD =  0.01252   =>   CDf =  0.00752    CDp =  0.00500

 Side 1  free  transition at x/c =  0.5886   60
 Side 2  free  transition at x/c =  0.1845   30

   7   rms: 0.3142E+00   max: -.1755E+01   D at   36  2   RLX: 0.285
       a =  2.000      CL =  1.0801
      Cm = -0.1773     CD =  0.01292   =>   CDf =  0.00787    CDp =  0.00505

 Side 1  free  transition at x/c =  0.5891   60
 Side 2  free  transition at x/c =  0.1911   31

   8   rms: 0.2287E+00   max: -.2060E+01   D at   41  2   RLX: 0.243
       a =  2.000      CL =  1.0701
      Cm = -0.1749     CD =  0.01262   =>   CDf =  0.00796    CDp =  0.00466

 MRCHDU: Convergence failed at  40  side 2    Res =  0.4699E+00
 MRCHDU: Convergence failed at  41  side 2    Res =  0.2405E+00
 MRCHDU: Convergence failed at  42  side 2    Res =  0.4520E+00
 Side 1  free  transition at x/c =  0.5889   60
 Side 2  free  transition at x/c =  0.1895   31

   9   rms: 0.1326E+00   max: -.9693E+00   D at   37  2   RLX: 0.516
       a =  2.000      CL =  1.0356
      Cm = -0.1664     CD =  0.01337   =>   CDf =  0.00837    CDp =  0.00500

 Side 1  free  transition at x/c =  0.5881   60
 Side 2  free  transition at x/c =  0.1831   30

  10   rms: 0.7183E-01   max: 0.4925E+00   T at   30  2
       a =  2.000      CL =  1.0096
      Cm = -0.1584     CD =  0.01437   =>   CDf =  0.00828    CDp =  0.00609

 Side 1  free  transition at x/c =  0.5869   59
 Side 2  free  transition at x/c =  0.1701   31

  11   rms: 0.2418E-01   max: -.2656E+00   D at   31  2
       a =  2.000      CL =  1.0072
      Cm = -0.1579     CD =  0.01454   =>   CDf =  0.00820    CDp =  0.00634

 Side 1  free  transition at x/c =  0.5868   59
 Side 2  free  transition at x/c =  0.1705   31

  12   rms: 0.2608E-02   max: 0.2274E-01   D at   31  2
       a =  2.000      CL =  1.0071
      Cm = -0.1579     CD =  0.01455   =>   CDf =  0.00818    CDp =  0.00637

 Side 1  free  transition at x/c =  0.5868   59
 Side 2  free  transition at x/c =  0.1704   31

  13   rms: 0.8510E-05   max: -.1107E-03   D at   32  2
       a =  2.000      CL =  1.0071
      Cm = -0.1579     CD =  0.01455   =>   CDf =  0.00818    CDp =  0.00637

 Point added to stored polar  1
 Point written to save file  000274M0.1.log                                  
 Dump file unspecified or not available
 Calculating wake trajectory ...
 Calculating source influence matrix ...

 Solving BL system ...

 Side 1  free  transition at x/c =  0.5868   59
 Side 2  free  transition at x/c =  0.1704   31

   1   rms: 0.2524E+00   max: -.1766E+01   T at   31  2   RLX: 0.283
       a =  3.000      CL =  1.0351
      Cm = -0.1575     CD =  0.01423   =>   CDf =  0.00806    CDp =  0.00617

 Side 1  free  transition at x/c =  0.5813   60
 Side 2  free  transition at x/c =  0.1835   30

   2   rms: 0.1288E+00   max: -.9856E+00   T at   30  2   RLX: 0.507
       a =  3.000      CL =  1.0752
      Cm = -0.1575     CD =  0.01481   =>   CDf =  0.00817    CDp =  0.00664

 MRCHDU: Convergence failed at  32  side 2    Res =  0.3269E+01
 MRCHDU: Convergence failed at  33  side 2    Res =  0.1391E+01
 MRCHDU: Convergence failed at  34  side 2    Res =  0.2069E+01
 MRCHDU: Convergence failed at  35  side 2    Res =  0.3171E+01
 MRCHDU: Convergence failed at  36  side 2    Res =  0.5190E+01
 MRCHDU: Convergence failed at  37  side 2    Res =  0.6567E+01
 MRCHDU: Convergence failed at  38  side 2    Res =  0.6929E+01
 MRCHDU: Convergence failed at  39  side 2    Res =  0.6351E+01
 MRCHDU: Convergence failed at  40  side 2    Res =  0.5316E+01
 MRCHDU: Convergence failed at  41  side 2    Res =  0.4285E+01
 MRCHDU: Convergence failed at  42  side 2    Res =  0.3342E+01
 MRCHDU: Convergence failed at  43  side 2    Res =  0.2481E+01
 MRCHDU: Convergence failed at  44  side 2    Res =  0.1924E+01
 MRCHDU: Convergence failed at  45  side 2    Res =  0.1553E+01
 MRCHDU: Convergence failed at  46  side 2    Res =  0.1241E+01
 Side 1  free  transition at x/c =  0.5758   59
 Side 2  free  transition at x/c =  0.2004   31

   3   rms: 0.1580E+00   max: -.9505E+00   D at   45  2   RLX: 0.526
       a =  3.000      CL =  1.0773
      Cm = -0.1563     CD =  0.01402   =>   CDf =  0.00738    CDp =  0.00664

 Side 1  free  transition at x/c =  0.5728   59
 Side 2  free  transition at x/c =  0.2073   32

   4   rms: 0.4869E-01   max: 0.3970E+00   D at   33  2
       a =  3.000      CL =  1.1121
      Cm = -0.1573     CD =  0.01462   =>   CDf =  0.00804    CDp =  0.00658

 Side 1  free  transition at x/c =  0.5698   60
 Side 2  free  transition at x/c =  0.2120   31

   5   rms: 0.5368E-02   max: -.6524E-01   D at   33  2
       a =  3.000      CL =  1.1124
      Cm = -0.1573     CD =  0.01469   =>   CDf =  0.00805    CDp =  0.00664

 Side 1  free  transition at x/c =  0.5699   60
 Side 2  free  transition at x/c =  0.2109   31

   6   rms: 0.2576E-03   max: -.2720E-02   D at   31  2
       a =  3.000      CL =  1.1125
      Cm = -0.1573     CD =  0.01470   =>   CDf =  0.00805    CDp =  0.00664

 Side 1  free  transition at x/c =  0.5699   60
 Side 2  free  transition at x/c =  0.2109   31

   7   rms: 0.2423E-05   max: 0.1034E-04   T at   76  2
       a =  3.000      CL =  1.1125
      Cm = -0.1573     CD =  0.01470   =>   CDf =  0.00805    CDp =  0.00664

 Point added to stored polar  1
 Point written to save file  000274M0.1.log                                  
 Dump file unspecified or not available
 Calculating wake trajectory ...
 Calculating source influence matrix ...

 Solving BL system ...

 Side 1  free  transition at x/c =  0.5699   60
 Side 2  free  transition at x/c =  0.2109   31

   1   rms: 0.1767E+00   max: -.1479E+01   T at   31  2   RLX: 0.338
       a =  4.000      CL =  1.1467
      Cm = -0.1569     CD =  0.01478   =>   CDf =  0.00806    CDp =  0.00672

 Side 1  free  transition at x/c =  0.5634   60
 Side 2  free  transition at x/c =  0.2284   32

   2   rms: 0.1294E+00   max: -.1089E+01   T at   32  2   RLX: 0.459
       a =  4.000      CL =  1.1801
      Cm = -0.1570     CD =  0.01491   =>   CDf =  0.00804    CDp =  0.00687

 Side 1  free  transition at x/c =  0.5591   60
 Side 2  free  transition at x/c =  0.2462   33

   3   rms: 0.8469E-01   max: -.7489E+00   T at   33  2   RLX: 0.668
       a =  4.000      CL =  1.2110
      Cm = -0.1581     CD =  0.01515   =>   CDf =  0.00790    CDp =  0.00725

 Side 1  free  transition at x/c =  0.5564   60
 Side 2  free  transition at x/c =  0.2679   33

   4   rms: 0.3919E-01   max: -.4151E+00   T at   33  2
       a =  4.000      CL =  1.2165
      Cm = -0.1567     CD =  0.01504   =>   CDf =  0.00801    CDp =  0.00703

 Side 1  free  transition at x/c =  0.5533   60
 Side 2  free  transition at x/c =  0.2980   35

   5   rms: 0.2763E-01   max: -.3705E+00   D at   35  2
       a =  4.000      CL =  1.2181
      Cm = -0.1571     CD =  0.01491   =>   CDf =  0.00786    CDp =  0.00705

 Side 1  free  transition at x/c =  0.5534   60
 Side 2  free  transition at x/c =  0.3132   36

   6   rms: 0.1495E-01   max: 0.2853E+00   C at   36  2
       a =  4.000      CL =  1.2180
      Cm = -0.1571     CD =  0.01491   =>   CDf =  0.00778    CDp =  0.00713

 Side 1  free  transition at x/c =  0.5534   60
 Side 2  free  transition at x/c =  0.3062   36

   7   rms: 0.1807E-02   max: 0.3468E-01   C at   36  2
       a =  4.000      CL =  1.2180
      Cm = -0.1571     CD =  0.01491   =>   CDf =  0.00779    CDp =  0.00712

 Side 1  free  transition at x/c =  0.5534   60
 Side 2  free  transition at x/c =  0.3054   36

   8   rms: 0.1679E-04   max: 0.2859E-03   C at   36  2
       a =  4.000      CL =  1.2180
      Cm = -0.1571     CD =  0.01491   =>   CDf =  0.00779    CDp =  0.00712

 Point added to stored polar  1
 Point written to save file  000274M0.1.log                                  
 Dump file unspecified or not available
 Calculating wake trajectory ...
 Calculating source influence matrix ...

 Solving BL system ...

 Side 1  free  transition at x/c =  0.5534   60
 Side 2  free  transition at x/c =  0.3054   36

   1   rms: 0.5729E+00   max: -.1059E+02   C at   36  2   RLX: 0.047
       a =  5.000      CL =  1.2226
      Cm = -0.1571     CD =  0.01489   =>   CDf =  0.00780    CDp =  0.00709

 Side 1  free  transition at x/c =  0.5526   60
 Side 2  free  transition at x/c =  0.3200   37

   2   rms: 0.7398E+00   max: -.1379E+02   C at   37  2   RLX: 0.036
       a =  5.000      CL =  1.2266
      Cm = -0.1572     CD =  0.01489   =>   CDf =  0.00778    CDp =  0.00711

 Side 1  free  transition at x/c =  0.5520   60
 Side 2  free  transition at x/c =  0.3350   37

   3   rms: 0.6548E+00   max: -.1264E+02   C at   37  2   RLX: 0.040
       a =  5.000      CL =  1.2307
      Cm = -0.1572     CD =  0.01490   =>   CDf =  0.00774    CDp =  0.00716

 Side 1  free  transition at x/c =  0.5514   60
 Side 2  free  transition at x/c =  0.3678   39

   4   rms: 0.7442E+01   max: -.1226E+03   C at   39  2   RLX: 0.004
       a =  5.000      CL =  1.2314
      Cm = -0.1573     CD =  0.01482   =>   CDf =  0.00764    CDp =  0.00719

 Side 1  free  transition at x/c =  0.5513   60
 Side 2  free  transition at x/c =  0.3929   41

   5   rms: 0.2260E+02   max: -.3662E+03   C at   41  2   RLX: 0.001
       a =  5.000      CL =  1.2317
      Cm = -0.1573     CD =  0.01478   =>   CDf =  0.00759    CDp =  0.00719

 Side 1  free  transition at x/c =  0.5513   60
 Side 2  free  transition at x/c =  0.4096   42

   6   rms: 0.3230E+02   max: -.5118E+03   C at   42  2   RLX: 0.001
       a =  5.000      CL =  1.2318
      Cm = -0.1573     CD =  0.01476   =>   CDf =  0.00756    CDp =  0.00719

 Side 1  free  transition at x/c =  0.5513   60
 Side 2  free  transition at x/c =  0.4270   43

   7   rms: 0.3725E+02   max: -.5857E+03   C at   43  2   RLX: 0.001
       a =  5.000      CL =  1.2319
      Cm = -0.1573     CD =  0.01473   =>   CDf =  0.00754    CDp =  0.00719

 Side 1  free  transition at x/c =  0.5513   60
 Side 2  free  transition at x/c =  0.4452   44

   8   rms: 0.4264E+02   max: -.6673E+03   C at   44  2   RLX: 0.001
       a =  5.000      CL =  1.2320
      Cm = -0.1574     CD =  0.01470   =>   CDf =  0.00751    CDp =  0.00719

 Side 1  free  transition at x/c =  0.5513   60
 Side 2  free  transition at x/c =  0.4643   45

   9   rms: 0.4706E+02   max: -.7343E+03   C at   45  2   RLX: 0.001
       a =  5.000      CL =  1.2321
      Cm = -0.1574     CD =  0.01468   =>   CDf =  0.00748    CDp =  0.00719

 Side 1  free  transition at x/c =  0.5513   60
 Side 2  free  transition at x/c =  0.4842   46

  10   rms: 0.4903E+02   max: -.7632E+03   C at   46  2   RLX: 0.001
       a =  5.000      CL =  1.2321
      Cm = -0.1574     CD =  0.01465   =>   CDf =  0.00745    CDp =  0.00719

 Side 1  free  transition at x/c =  0.5512   60
 Side 2  free  transition at x/c =  0.5040   47

  11   rms: 0.5239E+02   max: -.8152E+03   C at   47  2   RLX: 0.001
       a =  5.000      CL =  1.2322
      Cm = -0.1574     CD =  0.01462   =>   CDf =  0.00743    CDp =  0.00720

 Side 1  free  transition at x/c =  0.5512   60
 Side 2  free  transition at x/c =  0.5244   48

  12   rms: 0.5066E+02   max: -.7878E+03   C at   48  2   RLX: 0.001
       a =  5.000      CL =  1.2322
      Cm = -0.1574     CD =  0.01459   =>   CDf =  0.00740    CDp =  0.00720

 Side 1  free  transition at x/c =  0.5512   60
 Side 2  free  transition at x/c =  0.5449   49

  13   rms: 0.5089E+02   max: -.7915E+03   C at   49  2   RLX: 0.001
       a =  5.000      CL =  1.2322
      Cm = -0.1574     CD =  0.01456   =>   CDf =  0.00736    CDp =  0.00720

 Side 1  free  transition at x/c =  0.5512   60
 Side 2  free  transition at x/c =  0.5659   50

  14   rms: 0.4973E+02   max: -.7729E+03   C at   50  2   RLX: 0.001
       a =  5.000      CL =  1.2322
      Cm = -0.1574     CD =  0.01453   =>   CDf =  0.00733    CDp =  0.00720

 Side 1  free  transition at x/c =  0.5512   60
 Side 2  free  transition at x/c =  0.5866   51

  15   rms: 0.4305E+02   max: -.6690E+03   C at   51  2   RLX: 0.001
       a =  5.000      CL =  1.2322
      Cm = -0.1574     CD =  0.01450   =>   CDf =  0.00729    CDp =  0.00720

 Side 1  free  transition at x/c =  0.5512   60
 Side 2  free  transition at x/c =  0.6071   52

  16   rms: 0.3878E+02   max: -.6034E+03   C at   52  2   RLX: 0.001
       a =  5.000      CL =  1.2321
      Cm = -0.1574     CD =  0.01446   =>   CDf =  0.00725    CDp =  0.00721

 Side 1  free  transition at x/c =  0.5512   60
 Side 2  free  transition at x/c =  0.6277   54

  17   rms: 0.2709E+02   max: -.4724E+03   C at   54  2   RLX: 0.001
       a =  5.000      CL =  1.2320
      Cm = -0.1574     CD =  0.01442   =>   CDf =  0.00721    CDp =  0.00721

 Side 1  free  transition at x/c =  0.5512   60
 Side 2  free  transition at x/c =  0.6511   55

  18   rms: 0.2376E+02   max: -.4104E+03   C at   55  2   RLX: 0.001
       a =  5.000      CL =  1.2319
      Cm = -0.1573     CD =  0.01438   =>   CDf =  0.00716    CDp =  0.00722

 Side 1  free  transition at x/c =  0.5512   60
 Side 2  free  transition at x/c =  0.6734   56

  19   rms: 0.1881E+02   max: -.3226E+03   C at   56  2   RLX: 0.002
       a =  5.000      CL =  1.2318
      Cm = -0.1573     CD =  0.01434   =>   CDf =  0.00711    CDp =  0.00723

 Side 1  free  transition at x/c =  0.5512   60
 Side 2  free  transition at x/c =  0.6953   57

  20   rms: 0.1301E+02   max: -.2222E+03   C at   57  2   RLX: 0.002
       a =  5.000      CL =  1.2315
      Cm = -0.1572     CD =  0.01431   =>   CDf =  0.00706    CDp =  0.00724

 Side 1  free  transition at x/c =  0.5512   60
 Side 2  free  transition at x/c =  0.7181   58

  21   rms: 0.1039E+02   max: -.1769E+03   C at   58  2   RLX: 0.003
       a =  5.000      CL =  1.2311
      Cm = -0.1570     CD =  0.01427   =>   CDf =  0.00701    CDp =  0.00726

 Side 1  free  transition at x/c =  0.5511   60
 Side 2  free  transition at x/c =  0.7416   60

  22   rms: 0.7001E+01   max: -.1309E+03   C at   60  2   RLX: 0.004
       a =  5.000      CL =  1.2306
      Cm = -0.1568     CD =  0.01422   =>   CDf =  0.00695    CDp =  0.00727

 Side 1  free  transition at x/c =  0.5511   60
 Side 2  free  transition at x/c =  0.7725   61

  23   rms: 0.5640E+01   max: -.1020E+03   C at   61  2   RLX: 0.005
       a =  5.000      CL =  1.2298
      Cm = -0.1564     CD =  0.01418   =>   CDf =  0.00688    CDp =  0.00730

 Side 1  free  transition at x/c =  0.5511   60
 Side 2  free  transition at x/c =  0.7904   62

  24   rms: 0.3502E+01   max: -.6501E+02   C at   62  2   RLX: 0.008
       a =  5.000      CL =  1.2292
      Cm = -0.1562     CD =  0.01415   =>   CDf =  0.00683    CDp =  0.00731

 Side 1  free  transition at x/c =  0.5510   60
 Side 2  free  transition at x/c =  0.8277   64

  25   rms: 0.1346E+01   max: -.2570E+02   C at   64  2   RLX: 0.019
       a =  5.000      CL =  1.2282
      Cm = -0.1553     CD =  0.01409   =>   CDf =  0.00674    CDp =  0.00734
 VISCAL:  Convergence failed
 Calculating wake trajectory ...
 Calculating source influence matrix ...

 Solving BL system ...

 Side 1  free  transition at x/c =  0.5508   60
 Side 2  free  transition at x/c =  0.8620   66

   1   rms: 0.7811E+00   max: -.6997E+01   C at   66  2   RLX: 0.071
       a =  6.000      CL =  1.2340
      Cm = -0.1531     CD =  0.01408   =>   CDf =  0.00667    CDp =  0.00740

 Side 1  free  transition at x/c =  0.5487   60
 Side 2 forced transition at x/c =  1.0001   75

   2   rms: 0.4327E+00   max: -.1453E+01   n at   74  2   RLX: 0.344
       a =  6.000      CL =  1.2973
      Cm = -0.1522     CD =  0.01431   =>   CDf =  0.00643    CDp =  0.00788

 Side 1  free  transition at x/c =  0.5397   60
 Side 2 forced transition at x/c =  1.0001   74

   3   rms: 0.1698E+00   max: -.5212E+00   C at   74  2   RLX: 0.959
       a =  6.000      CL =  1.3963
      Cm = -0.1508     CD =  0.01527   =>   CDf =  0.00661    CDp =  0.00866

 Side 1  free  transition at x/c =  0.5210   60
 Side 2 forced transition at x/c =  1.0001   73

   4   rms: 0.3545E-01   max: 0.3683E+00   C at   73  2
       a =  6.000      CL =  1.4153
      Cm = -0.1534     CD =  0.01545   =>   CDf =  0.00679    CDp =  0.00867

 Side 1  free  transition at x/c =  0.5223   60
 Side 2 forced transition at x/c =  1.0001   73

   5   rms: 0.9575E-02   max: -.1077E+00   C at   73  2
       a =  6.000      CL =  1.4116
      Cm = -0.1526     CD =  0.01544   =>   CDf =  0.00670    CDp =  0.00875

 Side 1  free  transition at x/c =  0.5220   60
 Side 2 forced transition at x/c =  1.0001   73

   6   rms: 0.2801E-03   max: -.3426E-02   C at   73  2
       a =  6.000      CL =  1.4114
      Cm = -0.1525     CD =  0.01544   =>   CDf =  0.00670    CDp =  0.00875

 Side 1  free  transition at x/c =  0.5220   60
 Side 2 forced transition at x/c =  1.0001   73

   7   rms: 0.2251E-05   max: -.2381E-04   C at   73  2
       a =  6.000      CL =  1.4114
      Cm = -0.1525     CD =  0.01544   =>   CDf =  0.00670    CDp =  0.00875

 Point added to stored polar  1
 Point written to save file  000274M0.1.log                                  
 Dump file unspecified or not available
 Calculating wake trajectory ...
 Calculating source influence matrix ...

 Solving BL system ...

 Side 1  free  transition at x/c =  0.5220   60
 Side 2 forced transition at x/c =  1.0001   73

   1   rms: 0.1461E+00   max: -.4814E+00   C at   73  2
       a =  7.000      CL =  1.4974
      Cm = -0.1490     CD =  0.01644   =>   CDf =  0.00653    CDp =  0.00991

 Side 1  free  transition at x/c =  0.5048   60
 Side 2 forced transition at x/c =  1.0001   72

   2   rms: 0.3351E-01   max: -.2435E+00   D at   61  1
       a =  7.000      CL =  1.5158
      Cm = -0.1525     CD =  0.01647   =>   CDf =  0.00653    CDp =  0.00994

 Side 1  free  transition at x/c =  0.5066   61
 Side 2 forced transition at x/c =  1.0001   71

   3   rms: 0.1143E-01   max: -.1006E+00   T at    2  1
       a =  7.000      CL =  1.5124
      Cm = -0.1518     CD =  0.01647   =>   CDf =  0.00667    CDp =  0.00981

 Side 1  free  transition at x/c =  0.5063   61
 Side 2 forced transition at x/c =  1.0001   71

   4   rms: 0.9786E-03   max: -.1193E-01   D at    4  1
       a =  7.000      CL =  1.5122
      Cm = -0.1517     CD =  0.01647   =>   CDf =  0.00667    CDp =  0.00981

 Side 1  free  transition at x/c =  0.5063   61
 Side 2 forced transition at x/c =  1.0001   71

   5   rms: 0.8433E-05   max: 0.1728E-03   D at    2  1
       a =  7.000      CL =  1.5121
      Cm = -0.1517     CD =  0.01647   =>   CDf =  0.00667    CDp =  0.00981

 Point added to stored polar  1
 Point written to save file  000274M0.1.log                                  
 Dump file unspecified or not available
 Calculating wake trajectory ...
 Calculating source influence matrix ...

 Solving BL system ...

 Side 1  free  transition at x/c =  0.5063   61
 Side 2 forced transition at x/c =  1.0001   71

   1   rms: 0.1931E+00   max: -.1919E+01   D at    3  1   RLX: 0.261
       a =  8.000      CL =  1.5313
      Cm = -0.1503     CD =  0.01678   =>   CDf =  0.00668    CDp =  0.01010

 Side 1  free  transition at x/c =  0.5018   61
 Side 2 forced transition at x/c =  1.0001   71

   2   rms: 0.1067E+00   max: -.2462E+00   C at   71  2
       a =  8.000      CL =  1.5993
      Cm = -0.1486     CD =  0.01762   =>   CDf =  0.00637    CDp =  0.01125

 Side 1  free  transition at x/c =  0.4894   61
 Side 2 forced transition at x/c =  1.0001   70

   3   rms: 0.3057E-01   max: -.2214E+00   D at   62  1
       a =  8.000      CL =  1.6113
      Cm = -0.1508     CD =  0.01756   =>   CDf =  0.00660    CDp =  0.01097

 Side 1  free  transition at x/c =  0.4908   61
 Side 2 forced transition at x/c =  1.0001   70

   4   rms: 0.4045E-02   max: 0.3068E-01   D at   62  1
       a =  8.000      CL =  1.6102
      Cm = -0.1506     CD =  0.01762   =>   CDf =  0.00659    CDp =  0.01103

 Side 1  free  transition at x/c =  0.4906   61
 Side 2 forced transition at x/c =  1.0001   70

   5   rms: 0.1425E-03   max: 0.5769E-03   D at   72  2
       a =  8.000      CL =  1.6101
      Cm = -0.1506     CD =  0.01762   =>   CDf =  0.00658    CDp =  0.01104

 Side 1  free  transition at x/c =  0.4906   61
 Side 2 forced transition at x/c =  1.0001   70

   6   rms: 0.2675E-05   max: -.2053E-04   C at   70  2
       a =  8.000      CL =  1.6101
      Cm = -0.1506     CD =  0.01762   =>   CDf =  0.00658    CDp =  0.01104

 Point added to stored polar  1
 Point written to save file  000274M0.1.log                                  
 Dump file unspecified or not available
 Calculating wake trajectory ...
 Calculating source influence matrix ...

 Solving BL system ...

 Side 1  free  transition at x/c =  0.4906   61
 Side 2 forced transition at x/c =  1.0001   70

   1   rms: 0.1352E+00   max: -.5849E+00   C at   70  2   RLX: 0.855
       a =  9.000      CL =  1.6602
      Cm = -0.1435     CD =  0.01879   =>   CDf =  0.00636    CDp =  0.01243

 Side 1  free  transition at x/c =  0.4743   62
 Side 2 forced transition at x/c =  1.0001   69

   2   rms: 0.7059E-01   max: -.3000E+00   D at   62  1
       a =  9.000      CL =  1.7167
      Cm = -0.1515     CD =  0.01865   =>   CDf =  0.00653    CDp =  0.01212

 Side 1  free  transition at x/c =  0.4727   61
 Side 2 forced transition at x/c =  1.0001   69

   3   rms: 0.1727E-01   max: -.1057E+00   C at   69  2
       a =  9.000      CL =  1.7011
      Cm = -0.1483     CD =  0.01884   =>   CDf =  0.00640    CDp =  0.01244

 Side 1  free  transition at x/c =  0.4739   61
 Side 2 forced transition at x/c =  1.0001   69

   4   rms: 0.8204E-03   max: -.4763E-02   D at   61  1
       a =  9.000      CL =  1.7001
      Cm = -0.1481     CD =  0.01885   =>   CDf =  0.00640    CDp =  0.01245

 Side 1  free  transition at x/c =  0.4740   61
 Side 2 forced transition at x/c =  1.0001   69

   5   rms: 0.1736E-04   max: 0.1121E-03   C at   69  2
       a =  9.000      CL =  1.7001
      Cm = -0.1481     CD =  0.01885   =>   CDf =  0.00640    CDp =  0.01245

 Point added to stored polar  1
 Point written to save file  000274M0.1.log                                  
 Dump file unspecified or not available
 Calculating wake trajectory ...
 Calculating source influence matrix ...

 Solving BL system ...

 Side 1  free  transition at x/c =  0.4740   61
 Side 2 forced transition at x/c =  1.0001   69

   1   rms: 0.1348E+00   max: -.7942E+00   C at   69  2   RLX: 0.630
       a = 10.000      CL =  1.7121
      Cm = -0.1384     CD =  0.01982   =>   CDf =  0.00616    CDp =  0.01367

 Side 1  free  transition at x/c =  0.4535   61
 Side 2 forced transition at x/c =  1.0001   68

   2   rms: 0.7395E-01   max: -.4360E+00   D at   62  1
       a = 10.000      CL =  1.7332
      Cm = -0.1350     CD =  0.01982   =>   CDf =  0.00640    CDp =  0.01343

 Side 1  free  transition at x/c =  0.4486   61
 Side 2 forced transition at x/c =  1.0001   68

   3   rms: 0.9959E-02   max: -.4438E-01   D at   71  2
       a = 10.000      CL =  1.7422
      Cm = -0.1369     CD =  0.02013   =>   CDf =  0.00610    CDp =  0.01403

 Side 1  free  transition at x/c =  0.4474   61
 Side 2 forced transition at x/c =  1.0001   68

   4   rms: 0.1581E-03   max: 0.1826E-02   D at   74  2
       a = 10.000      CL =  1.7421
      Cm = -0.1369     CD =  0.02014   =>   CDf =  0.00612    CDp =  0.01402

 Side 1  free  transition at x/c =  0.4474   61
 Side 2 forced transition at x/c =  1.0001   68

   5   rms: 0.1771E-05   max: 0.6377E-05   D at   61  1
       a = 10.000      CL =  1.7421
      Cm = -0.1369     CD =  0.02014   =>   CDf =  0.00612    CDp =  0.01402

 Point added to stored polar  1
 Point written to save file  000274M0.1.log                                  
 Dump file unspecified or not available
 Calculating wake trajectory ...
 Calculating source influence matrix ...

 Solving BL system ...

 Side 1  free  transition at x/c =  0.4474   61
 Side 2 forced transition at x/c =  1.0001   68

   1   rms: 0.1339E+00   max: 0.6420E+00   T at   61  1
       a = 11.000      CL =  1.7890
      Cm = -0.1274     CD =  0.02166   =>   CDf =  0.00585    CDp =  0.01581

 Side 1  free  transition at x/c =  0.4182   60
 Side 2 forced transition at x/c =  1.0001   67

   2   rms: 0.3006E-01   max: 0.4273E+00   D at   61  1
       a = 11.000      CL =  1.7780
      Cm = -0.1266     CD =  0.02267   =>   CDf =  0.00601    CDp =  0.01666

 Side 1  free  transition at x/c =  0.4201   60
 Side 2 forced transition at x/c =  1.0001   67

   3   rms: 0.3504E-02   max: 0.2361E-01   T at   61  1
       a = 11.000      CL =  1.7807
      Cm = -0.1270     CD =  0.02247   =>   CDf =  0.00590    CDp =  0.01657

 Side 1  free  transition at x/c =  0.4190   60
 Side 2 forced transition at x/c =  1.0001   67

   4   rms: 0.1168E-03   max: -.7461E-03   D at   60  1
       a = 11.000      CL =  1.7806
      Cm = -0.1270     CD =  0.02247   =>   CDf =  0.00591    CDp =  0.01657

 Side 1  free  transition at x/c =  0.4190   60
 Side 2 forced transition at x/c =  1.0001   67

   5   rms: 0.3598E-05   max: -.2482E-04   C at   67  2
       a = 11.000      CL =  1.7806
      Cm = -0.1270     CD =  0.02247   =>   CDf =  0.00591    CDp =  0.01657

 Point added to stored polar  1
 Point written to save file  000274M0.1.log                                  
 Dump file unspecified or not available
 Calculating wake trajectory ...
 Calculating source influence matrix ...

 Solving BL system ...

 Side 1  free  transition at x/c =  0.4190   60
 Side 2 forced transition at x/c =  1.0001   67

   1   rms: 0.1322E+00   max: 0.4799E+00   T at   60  1   RLX: 0.881
       a = 12.000      CL =  1.8058
      Cm = -0.1181     CD =  0.02552   =>   CDf =  0.00561    CDp =  0.01991

 Side 1  free  transition at x/c =  0.3920   59
 Side 2 forced transition at x/c =  1.0001   66

   2   rms: 0.4499E-01   max: -.4622E+00   D at   60  1
       a = 12.000      CL =  1.8158
      Cm = -0.1182     CD =  0.02570   =>   CDf =  0.00579    CDp =  0.01991

 Side 1  free  transition at x/c =  0.3927   60
 Side 2 forced transition at x/c =  1.0001   66

   3   rms: 0.5658E-02   max: -.3958E-01   D at   61  1
       a = 12.000      CL =  1.8184
      Cm = -0.1187     CD =  0.02590   =>   CDf =  0.00569    CDp =  0.02021

 Side 1  free  transition at x/c =  0.3913   59
 Side 2 forced transition at x/c =  1.0001   66

   4   rms: 0.3271E-02   max: 0.2159E-01   D at   60  1
       a = 12.000      CL =  1.8164
      Cm = -0.1185     CD =  0.02603   =>   CDf =  0.00569    CDp =  0.02034

 Side 1  free  transition at x/c =  0.3911   59
 Side 2 forced transition at x/c =  1.0001   66

   5   rms: 0.8131E-04   max: 0.5775E-03   D at   75  2
       a = 12.000      CL =  1.8164
      Cm = -0.1185     CD =  0.02602   =>   CDf =  0.00568    CDp =  0.02035

 Point added to stored polar  1
 Point written to save file  000274M0.1.log                                  
 Dump file unspecified or not available
 Calculating wake trajectory ...
 Calculating source influence matrix ...

 Solving BL system ...

 Side 1  free  transition at x/c =  0.3911   59
 Side 2 forced transition at x/c =  1.0001   66

   1   rms: 0.1414E+00   max: 0.4989E+00   D at   83  1   RLX: 0.751
       a = 13.000      CL =  1.8257
      Cm = -0.1114     CD =  0.03031   =>   CDf =  0.00536    CDp =  0.02495

 Side 1  free  transition at x/c =  0.3592   58
 Side 2 forced transition at x/c =  1.0001   65

   2   rms: 0.4167E-01   max: -.4762E+00   D at   59  1
       a = 13.000      CL =  1.8243
      Cm = -0.1090     CD =  0.03205   =>   CDf =  0.00561    CDp =  0.02644

 Side 1  free  transition at x/c =  0.3583   58
 Side 2 forced transition at x/c =  1.0001   65

   3   rms: 0.8986E-02   max: 0.7130E-01   C at   58  1
       a = 13.000      CL =  1.8293
      Cm = -0.1097     CD =  0.03197   =>   CDf =  0.00532    CDp =  0.02665

 Side 1  free  transition at x/c =  0.3551   58
 Side 2 forced transition at x/c =  1.0001   65

   4   rms: 0.5166E-03   max: -.4533E-02   C at   58  1
       a = 13.000      CL =  1.8296
      Cm = -0.1097     CD =  0.03199   =>   CDf =  0.00536    CDp =  0.02664

 Side 1  free  transition at x/c =  0.3551   58
 Side 2 forced transition at x/c =  1.0001   65

   5   rms: 0.2599E-04   max: -.1386E-03   D at   76  2
       a = 13.000      CL =  1.8296
      Cm = -0.1097     CD =  0.03200   =>   CDf =  0.00536    CDp =  0.02664

 Point added to stored polar  1
 Point written to save file  000274M0.1.log                                  
 Dump file unspecified or not available
 Calculating wake trajectory ...
 Calculating source influence matrix ...

 Solving BL system ...

 Side 1  free  transition at x/c =  0.3551   58
 Side 2 forced transition at x/c =  1.0001   65

   1   rms: 0.1439E+00   max: 0.5480E+00   D at   81  1   RLX: 0.643
       a = 14.000      CL =  1.8323
      Cm = -0.1048     CD =  0.03723   =>   CDf =  0.00537    CDp =  0.03186

 Side 1  free  transition at x/c =  0.3183   56
 Side 2 forced transition at x/c =  1.0001   65

   2   rms: 0.6164E-01   max: 0.3902E+00   D at   81  1
       a = 14.000      CL =  1.8193
      Cm = -0.1018     CD =  0.04185   =>   CDf =  0.00539    CDp =  0.03646

 Side 1  free  transition at x/c =  0.2999   55
 Side 2 forced transition at x/c =  1.0001   65

   3   rms: 0.1248E-01   max: 0.1134E+00   D at   79  1
       a = 14.000      CL =  1.8140
      Cm = -0.1015     CD =  0.04209   =>   CDf =  0.00530    CDp =  0.03679

 Side 1  free  transition at x/c =  0.3032   55
 Side 2 forced transition at x/c =  1.0001   65

   4   rms: 0.1041E-02   max: -.9276E-02   D at   80  1
       a = 14.000      CL =  1.8144
      Cm = -0.1015     CD =  0.04194   =>   CDf =  0.00521    CDp =  0.03673

 Side 1  free  transition at x/c =  0.3030   55
 Side 2 forced transition at x/c =  1.0001   65

   5   rms: 0.5947E-04   max: -.3525E-03   D at   76  2
       a = 14.000      CL =  1.8144
      Cm = -0.1015     CD =  0.04195   =>   CDf =  0.00521    CDp =  0.03673

 Point added to stored polar  1
 Point written to save file  000274M0.1.log                                  
 Dump file unspecified or not available
 Calculating wake trajectory ...
 Calculating source influence matrix ...

 Solving BL system ...

 Side 1  free  transition at x/c =  0.3030   55
 Side 2 forced transition at x/c =  1.0001   65

   1   rms: 0.1819E+00   max: 0.1300E+01   C at   55  1   RLX: 0.523
       a = 15.000      CL =  1.7924
      Cm = -0.0977     CD =  0.04993   =>   CDf =  0.00488    CDp =  0.04504

 Side 1  free  transition at x/c =  0.2596   53
 Side 2 forced transition at x/c =  1.0001   64

   2   rms: 0.9701E-01   max: 0.6068E+00   C at   53  1
       a = 15.000      CL =  1.7605
      Cm = -0.0948     CD =  0.05898   =>   CDf =  0.00536    CDp =  0.05362

 Side 1  free  transition at x/c =  0.2071   49
 Side 2 forced transition at x/c =  1.0001   64

   3   rms: 0.4127E-01   max: -.4668E+00   C at   49  1
       a = 15.000      CL =  1.7383
      Cm = -0.0942     CD =  0.06084   =>   CDf =  0.00563    CDp =  0.05521

 Side 1  free  transition at x/c =  0.2339   51
 Side 2 forced transition at x/c =  1.0001   64

   4   rms: 0.1882E-01   max: -.1484E+00   D at   51  1
       a = 15.000      CL =  1.7529
      Cm = -0.0944     CD =  0.05849   =>   CDf =  0.00530    CDp =  0.05319

 Side 1  free  transition at x/c =  0.2105   50
 Side 2 forced transition at x/c =  1.0001   64

   5   rms: 0.1955E-01   max: -.3491E+00   C at   50  1
       a = 15.000      CL =  1.7456
      Cm = -0.0942     CD =  0.05956   =>   CDf =  0.00555    CDp =  0.05401

 Side 1  free  transition at x/c =  0.2201   50
 Side 2 forced transition at x/c =  1.0001   64

   6   rms: 0.4344E-02   max: -.8414E-01   C at   50  1
       a = 15.000      CL =  1.7439
      Cm = -0.0941     CD =  0.05969   =>   CDf =  0.00542    CDp =  0.05426

 Side 1  free  transition at x/c =  0.2227   50
 Side 2 forced transition at x/c =  1.0001   64

   7   rms: 0.2727E-03   max: -.5361E-02   C at   50  1
       a = 15.000      CL =  1.7438
      Cm = -0.0941     CD =  0.05969   =>   CDf =  0.00540    CDp =  0.05429

 Side 1  free  transition at x/c =  0.2227   50
 Side 2 forced transition at x/c =  1.0001   64

   8   rms: 0.1149E-02   max: -.2312E-01   C at   50  1
       a = 15.000      CL =  1.7437
      Cm = -0.0941     CD =  0.05969   =>   CDf =  0.00540    CDp =  0.05428

 Side 1  free  transition at x/c =  0.2227   50
 Side 2 forced transition at x/c =  1.0001   64

   9   rms: 0.1121E-02   max: -.2249E-01   C at   50  1
       a = 15.000      CL =  1.7437
      Cm = -0.0941     CD =  0.05969   =>   CDf =  0.00540    CDp =  0.05428

 Side 1  free  transition at x/c =  0.2227   50
 Side 2 forced transition at x/c =  1.0001   64

  10   rms: 0.1123E-02   max: -.2254E-01   C at   50  1
       a = 15.000      CL =  1.7437
      Cm = -0.0941     CD =  0.05969   =>   CDf =  0.00540    CDp =  0.05428

 Side 1  free  transition at x/c =  0.2227   50
 Side 2 forced transition at x/c =  1.0001   64

  11   rms: 0.1122E-02   max: -.2252E-01   C at   50  1
       a = 15.000      CL =  1.7437
      Cm = -0.0941     CD =  0.05969   =>   CDf =  0.00540    CDp =  0.05428

 Side 1  free  transition at x/c =  0.2227   50
 Side 2 forced transition at x/c =  1.0001   64

  12   rms: 0.1123E-02   max: -.2254E-01   C at   50  1
       a = 15.000      CL =  1.7437
      Cm = -0.0941     CD =  0.05969   =>   CDf =  0.00540    CDp =  0.05428

 Side 1  free  transition at x/c =  0.2227   50
 Side 2 forced transition at x/c =  1.0001   64

  13   rms: 0.1122E-02   max: -.2251E-01   C at   50  1
       a = 15.000      CL =  1.7437
      Cm = -0.0941     CD =  0.05969   =>   CDf =  0.00540    CDp =  0.05428

 Side 1  free  transition at x/c =  0.2227   50
 Side 2 forced transition at x/c =  1.0001   64

  14   rms: 0.1122E-02   max: -.2253E-01   C at   50  1
       a = 15.000      CL =  1.7437
      Cm = -0.0941     CD =  0.05969   =>   CDf =  0.00540    CDp =  0.05428

 Side 1  free  transition at x/c =  0.2227   50
 Side 2 forced transition at x/c =  1.0001   64

  15   rms: 0.1121E-02   max: -.2251E-01   C at   50  1
       a = 15.000      CL =  1.7437
      Cm = -0.0941     CD =  0.05969   =>   CDf =  0.00540    CDp =  0.05428

 Side 1  free  transition at x/c =  0.2227   50
 Side 2 forced transition at x/c =  1.0001   64

  16   rms: 0.1122E-02   max: -.2252E-01   C at   50  1
       a = 15.000      CL =  1.7437
      Cm = -0.0941     CD =  0.05969   =>   CDf =  0.00540    CDp =  0.05428

 Side 1  free  transition at x/c =  0.2227   50
 Side 2 forced transition at x/c =  1.0001   64

  17   rms: 0.1122E-02   max: -.2252E-01   C at   50  1
       a = 15.000      CL =  1.7437
      Cm = -0.0941     CD =  0.05969   =>   CDf =  0.00540    CDp =  0.05428

 Side 1  free  transition at x/c =  0.2227   50
 Side 2 forced transition at x/c =  1.0001   64

  18   rms: 0.1121E-02   max: -.2250E-01   C at   50  1
       a = 15.000      CL =  1.7437
      Cm = -0.0941     CD =  0.05969   =>   CDf =  0.00540    CDp =  0.05428

 Side 1  free  transition at x/c =  0.2227   50
 Side 2 forced transition at x/c =  1.0001   64

  19   rms: 0.1123E-02   max: -.2255E-01   C at   50  1
       a = 15.000      CL =  1.7437
      Cm = -0.0941     CD =  0.05969   =>   CDf =  0.00540    CDp =  0.05428

 Side 1  free  transition at x/c =  0.2227   50
 Side 2 forced transition at x/c =  1.0001   64

  20   rms: 0.1121E-02   max: -.2250E-01   C at   50  1
       a = 15.000      CL =  1.7437
      Cm = -0.0941     CD =  0.05969   =>   CDf =  0.00540    CDp =  0.05428

 Side 1  free  transition at x/c =  0.2227   50
 Side 2 forced transition at x/c =  1.0001   64

  21   rms: 0.1122E-02   max: -.2251E-01   C at   50  1
       a = 15.000      CL =  1.7437
Got result {'DD': 0.01445, 'Dmin': 0.01455, 'LL': -1.0034}
Completed successfully in 2.79 seconds. [{'DD': 0.01445, 'Dmin': 0.01455, 'LL': -1.0034}]
      Cm = -0.0941     CD =  0.05969   =>   CDf =  0.00540    CDp =  0.05428

 Side 1  free  transition at x/c =  0.2227   50
 Side 2 forced transition at x/c =  1.0001   64

  22   rms: 0.1123E-02   max: -.2254E-01   C at   50  1
       a = 15.000      CL =  1.7437
      Cm = -0.0941     CD =  0.05969   =>   CDf =  0.00540    CDp =  0.05428

 Side 1  free  transition at x/c =  0.2227   50
 Side 2 forced transition at x/c =  1.0001   64

  23   rms: 0.1122E-02   max: -.2252E-01   C at   50  1
       a = 15.000      CL =  1.7437
      Cm = -0.0941     CD =  0.05969   =>   CDf =  0.00540    CDp =  0.05428

 Side 1  free  transition at x/c =  0.2227   50
 Side 2 forced transition at x/c =  1.0001   64

  24   rms: 0.1122E-02   max: -.2253E-01   C at   50  1
       a = 15.000      CL =  1.7437
      Cm = -0.0941     CD =  0.05969   =>   CDf =  0.00540    CDp =  0.05428

 Side 1  free  transition at x/c =  0.2227   50
 Side 2 forced transition at x/c =  1.0001   64

  25   rms: 0.1123E-02   max: -.2253E-01   C at   50  1
       a = 15.000      CL =  1.7437
      Cm = -0.0941     CD =  0.05969   =>   CDf =  0.00540    CDp =  0.05428
 VISCAL:  Convergence failed

.OPERva   c>  
 XFOIL   c>  
