Job launching after 0.28 seconds in submission.
Running python job.
Changed into dir /home/simonx/Documents/Udacity/Projects/capstone/PESM_NSGA2_CST_XFoil
Importing evaluationFunctionXFoil.py
Running evaluationFunctionXFoil.main()
0
1
2
0.04
resp: 
 ===================================================
  XFOIL Version 6.97
  Copyright (C) 2000   Mark Drela, Harold Youngren

  This software comes with ABSOLUTELY NO WARRANTY,
    subject to the GNU General Public License.

  Caveat computor
 ===================================================

 File  xfoil.def  not found

   QUIT    Exit program

  .OPER    Direct operating point(s)
  .MDES    Complex mapping design routine
  .QDES    Surface speed design routine
  .GDES    Geometry design routine

   SAVE f  Write airfoil to labeled coordinate file
   PSAV f  Write airfoil to plain coordinate file
   ISAV f  Write airfoil to ISES coordinate file
   MSAV f  Write airfoil to MSES coordinate file
   REVE    Reverse written-airfoil node ordering
   DELI i  Change written-airfoil file delimiters

   LOAD f  Read buffer airfoil from coordinate file
   NACA i  Set NACA 4,5-digit airfoil and buffer airfoil
   INTE    Set buffer airfoil by interpolating two airfoils
   NORM    Buffer airfoil normalization toggle
   HALF    Halve the number of points in buffer airfoil
   XYCM rr Change CM reference location, currently  0.25000 0.00000

   BEND    Display structural properties of current airfoil

   PCOP    Set current-airfoil panel nodes directly from buffer airfoil points
   PANE    Set current-airfoil panel nodes ( 160 ) based on curvature
  .PPAR    Show/change paneling

  .PLOP    Plotting options

   WDEF f  Write  current-settings file
   RDEF f  Reread current-settings file
   NAME s  Specify new airfoil name
   NINC    Increment name version number

   Z       Zoom    | (available in all menus)
   U       Unzoom  | 

 XFOIL   c>   ...............................................

  G raphics-enable flag:        T
  S ize of plot object          10.00"
  A spect ratio of plot object   0.5500
  P age dimensions              11.00 x  8.50"
  M argins from page edges       0.00",  0.00"
  F ont size (relative)          0.0150
  W indow/screen size fraction   0.8000
  B lowup input method:        Cursor    
  O rientation of plot:        Landscape 
  C olor PostScript output?     F

      Option, Value   (or <Return>)    c>   ...............................................

  G raphics-enable flag:        F
  S ize of plot object          10.00"
  A spect ratio of plot object   0.5500
  P age dimensions              11.00 x  8.50"
  M argins from page edges       0.00",  0.00"
  F ont size (relative)          0.0150
  W indow/screen size fraction   0.8000
  B lowup input method:        Cursor    
  O rientation of plot:        Landscape 
  C olor PostScript output?     F

      Option, Value   (or <Return>)    c>  
 XFOIL   c>  
 Labeled airfoil file.  Name:  000097                                          

 Number of input coordinate points: 200
 Clockwise ordering
 Max thickness =     0.176161  at x =   0.273
 Max camber    =     0.082028  at x =   0.563

  LE  x,y  =  -0.00001  -0.00076  |   Chord =   0.99989
  TE  x,y  =   0.99988   0.00006  |

 Current airfoil nodes set from buffer airfoil nodes ( 200 )

 XFOIL   c>  
 You are working with the buffer airfoil

.GDES   c>  
  i       x        y      angle
   2   0.9990   0.0005    0.027
   3   0.9978   0.0011    0.038
   4   0.9961   0.0019    0.012
   5   0.9938   0.0030    0.042
   6   0.9911   0.0043    0.081
   7   0.9880   0.0058    0.049
   8   0.9843   0.0076    0.088
   9   0.9801   0.0096    0.097
  10   0.9755   0.0118    0.094
  11   0.9704   0.0142    0.117
  12   0.9649   0.0168    0.135
  13   0.9589   0.0196    0.130
  14   0.9524   0.0226    0.168
  15   0.9455   0.0258    0.173
  16   0.9382   0.0292    0.190
  17   0.9304   0.0327    0.204
  18   0.9222   0.0364    0.231
  19   0.9135   0.0402    0.248
  20   0.9045   0.0442    0.266
  21   0.8951   0.0483    0.290
  22   0.8853   0.0525    0.309
  23   0.8751   0.0568    0.340
  24   0.8645   0.0612    0.359
  25   0.8536   0.0657    0.389
  26   0.8423   0.0702    0.412
  27   0.8307   0.0748    0.437
  28   0.8187   0.0793    0.475
  29   0.8065   0.0839    0.495
  30   0.7939   0.0885    0.535
  31   0.7810   0.0930    0.561
  32   0.7679   0.0975    0.592
  33   0.7545   0.1019    0.624
  34   0.7409   0.1063    0.661
  35   0.7270   0.1105    0.694
  36   0.7129   0.1147    0.728
  37   0.6986   0.1187    0.760
  38   0.6841   0.1225    0.790
  39   0.6694   0.1262    0.834
  40   0.6545   0.1297    0.858
  41   0.6395   0.1330    0.892
  42   0.6243   0.1360    0.924
  43   0.6091   0.1389    0.954
  44   0.5937   0.1415    0.985
  45   0.5782   0.1438    1.006
  46   0.5627   0.1459    1.039
  47   0.5471   0.1477    1.054
  48   0.5314   0.1492    1.076
  49   0.5157   0.1504    1.097
  50   0.5000   0.1513    1.106
  51   0.4843   0.1519    1.122
  52   0.4686   0.1522    1.128
  53   0.4529   0.1522    1.138
  54   0.4373   0.1519    1.131
  55   0.4218   0.1512    1.138
  56   0.4063   0.1503    1.129
  57   0.3909   0.1491    1.119
  58   0.3757   0.1476    1.110
  59   0.3605   0.1458    1.091
  60   0.3455   0.1437    1.075
  61   0.3306   0.1413    1.060
  62   0.3159   0.1387    1.026
  63   0.3014   0.1359    1.007
  64   0.2871   0.1329    0.976
  65   0.2730   0.1296    0.951
  66   0.2591   0.1261    0.919
  67   0.2455   0.1225    0.887
  68   0.2321   0.1187    0.854
  69   0.2190   0.1148    0.824
  70   0.2061   0.1107    0.790
  71   0.1935   0.1066    0.764
  72   0.1813   0.1024    0.731
  73   0.1693   0.0981    0.705
  74   0.1577   0.0937    0.681
  75   0.1464   0.0894    0.656
  76   0.1355   0.0850    0.635
  77   0.1249   0.0807    0.631
  78   0.1147   0.0763    0.618
  79   0.1049   0.0720    0.621
  80   0.0955   0.0677    0.622
  81   0.0865   0.0635    0.645
  82   0.0778   0.0594    0.681
  83   0.0696   0.0554    0.716
  84   0.0618   0.0514    0.773
  85   0.0545   0.0476    0.869
  86   0.0476   0.0438    0.977
  87   0.0411   0.0401    1.102
  88   0.0351   0.0365    1.305
  89   0.0296   0.0331    1.520
  90   0.0245   0.0297    1.827
  91   0.0199   0.0264    2.201
  92   0.0157   0.0232    2.698
  93   0.0120   0.0201    3.298
  94   0.0089   0.0171    4.096
  95   0.0062   0.0142    5.051
  96   0.0039   0.0113    6.202
  97   0.0022   0.0084    7.517
  98   0.0010   0.0056    8.775
  99   0.0002   0.0028    9.754
 100   0.0000   0.0000    7.796
 101   0.0002  -0.0052    5.435
 102   0.0010  -0.0103    5.404
 103   0.0022  -0.0155    5.371
 104   0.0039  -0.0205    5.290
 105   0.0062  -0.0254    5.208
 106   0.0089  -0.0302    5.116
 107   0.0120  -0.0348    4.958
 108   0.0157  -0.0393    4.836
 109   0.0199  -0.0435    4.665
 110   0.0245  -0.0475    4.469
 111   0.0296  -0.0513    4.280
 112   0.0351  -0.0548    4.072
 113   0.0411  -0.0580    3.864
 114   0.0476  -0.0609    3.638
 115   0.0545  -0.0635    3.426
 116   0.0618  -0.0658    3.195
 117   0.0696  -0.0678    2.995
 118   0.0778  -0.0694    2.785
 119   0.0865  -0.0706    2.570
 120   0.0955  -0.0715    2.383
 121   0.1049  -0.0721    2.200
 122   0.1147  -0.0722    2.007
 123   0.1249  -0.0721    1.853
 124   0.1355  -0.0716    1.675
 125   0.1464  -0.0707    1.532
 126   0.1577  -0.0696    1.375
 127   0.1693  -0.0681    1.238
 128   0.1813  -0.0663    1.110
 129   0.1935  -0.0642    0.978
 130   0.2061  -0.0618    0.856
 131   0.2190  -0.0592    0.741
 132   0.2321  -0.0563    0.631
 133   0.2455  -0.0533    0.531
 134   0.2591  -0.0500    0.422
 135   0.2730  -0.0466    0.333
 136   0.2871  -0.0430    0.232
 137   0.3014  -0.0394    0.154
 138   0.3159  -0.0356    0.058
 139   0.3306  -0.0318   -0.014
 140   0.3455  -0.0279   -0.098
 141   0.3605  -0.0240   -0.170
 142   0.3757  -0.0201   -0.240
 143   0.3909  -0.0163   -0.306
 144   0.4063  -0.0125   -0.370
 145   0.4218  -0.0088   -0.434
 146   0.4373  -0.0053   -0.484
 147   0.4529  -0.0018   -0.542
 148   0.4686   0.0015   -0.583
 149   0.4843   0.0047   -0.626
 150   0.5000   0.0077   -0.674
 151   0.5157   0.0104   -0.697
 152   0.5314   0.0130   -0.735
 153   0.5471   0.0154   -0.758
 154   0.5627   0.0176   -0.772
 155   0.5782   0.0195   -0.791
 156   0.5937   0.0212   -0.799
 157   0.6091   0.0227   -0.806
 158   0.6243   0.0240   -0.804
 159   0.6395   0.0250   -0.797
 160   0.6545   0.0258   -0.792
 161   0.6694   0.0264   -0.776
 162   0.6841   0.0268   -0.758
 163   0.6986   0.0270   -0.738
 164   0.7129   0.0270   -0.706
 165   0.7270   0.0269   -0.687
 166   0.7409   0.0266   -0.653
 167   0.7545   0.0261   -0.618
 168   0.7679   0.0255   -0.579
 169   0.7810   0.0247   -0.553
 170   0.7939   0.0239   -0.508
 171   0.8065   0.0230   -0.467
 172   0.8187   0.0219   -0.433
 173   0.8307   0.0209   -0.398
 174   0.8423   0.0197   -0.352
 175   0.8536   0.0186   -0.316
 176   0.8645   0.0174   -0.279
 177   0.8751   0.0162   -0.245
 178   0.8853   0.0150   -0.207
 179   0.8951   0.0138   -0.183
 180   0.9045   0.0126   -0.142
 181   0.9135   0.0114   -0.118
 182   0.9222   0.0103   -0.097
 183   0.9304   0.0092   -0.064
 184   0.9382   0.0082   -0.048
 185   0.9455   0.0072   -0.021
 186   0.9524   0.0063   -0.026
 187   0.9589   0.0054    0.012
 188   0.9649   0.0046    0.015
 189   0.9704   0.0039    0.021
 190   0.9755   0.0032    0.017
 191   0.9801   0.0026    0.053
 192   0.9843   0.0021    0.026
 193   0.9880   0.0016    0.031
 194   0.9911   0.0012    0.026
 195   0.9938   0.0008    0.059
 196   0.9961   0.0005   -0.014
 197   0.9978   0.0003    0.049
 198   0.9990   0.0001    0.038
 199   0.9998   0.0000   -0.066

 Maximum panel corner angle =  9.754   at  i,x,y  =  99   0.0002   0.0028

 Enter corner angle criterion for refinement (deg):   4.877
 Enter type of spline parameter (1=uniform, 2=arclength):   1
 Enter refinement x limits:  -0.10000   1.10000
 Number of points added:           26
 Max thickness =     0.176193  at x =   0.273
 Max camber    =     0.081686  at x =   0.563

 Maximum panel corner angle =  4.665   at  i,x,y  = 135   0.0199  -0.0435

.GDES   c>  
 Buffer airfoil is not identical to current airfoil

 XFOIL   c>  
 Blunt trailing edge.  Gap =  0.00027

 Paneling parameters used...
   Number of panel nodes       160
   Panel bunching parameter    1.000
   TE/LE panel density ratio   0.150
   Refined-area/LE panel density ratio    0.200
   Top    side refined area x/c limits  1.000 1.000
   Bottom side refined area x/c limits  1.000 1.000

 XFOIL   c>  
Enter output filename   s>  
 XFOIL   c>  
.OPERi   c>   Current iteration limit:          20

Enter new iteration limit   i>  
Enter new iteration limit   i>  
Enter new iteration limit   i>  
.OPERi   c>  
 M  =    0.0000
 Re =  0.3000E+06

.OPERv   c>  
 Sonic Cp =   -420.65      Sonic Q/Qinf =    22.825


.OPERv   c>  
 Polar  1 newly created for accumulation
 Airfoil archived with polar: 000097                                          

Enter  polar save filename  OR  <return> for no file   s>  
 New polar save file available

Enter  polar dump filename  OR  <return> for no file   s>  
 Polar dump file will NOT be written

 Polar accumulation enabled

.OPERva   c>   Calculating unit vorticity distributions ...
 Calculating wake trajectory ...
 Calculating source influence matrix ...

 Solving BL system ...

 Initializing BL ...
    side            1  ...
 MRCHUE: Inverse mode at  64     Hk =   4.060
 MRCHUE: Inverse mode at  65     Hk =   4.791
 MRCHUE: Inverse mode at  66     Hk =   5.506
 MRCHUE: Inverse mode at  67     Hk =   6.213
 MRCHUE: Inverse mode at  68     Hk =   6.912
 MRCHUE: Inverse mode at  69     Hk =   7.608
 MRCHUE: Inverse mode at  70     Hk =   8.301
 MRCHUE: Inverse mode at  71     Hk =   8.993
 MRCHUE: Inverse mode at  72     Hk =   8.978
 MRCHUE: Inverse mode at  73     Hk =   5.877
 MRCHUE: Inverse mode at  74     Hk =   4.218
 MRCHUE: Inverse mode at  75     Hk =   3.063
 MRCHUE: Inverse mode at  86     Hk =   2.500
 MRCHUE: Inverse mode at  87     Hk =   2.500
 MRCHUE: Convergence failed at  88  side 1    Res =  0.2816E+03
    side            2  ...
 MRCHUE: Inverse mode at  32     Hk =   4.366
 MRCHUE: Inverse mode at  33     Hk =   5.227
 MRCHUE: Inverse mode at  34     Hk =   6.095
 MRCHUE: Inverse mode at  35     Hk =   6.978
 MRCHUE: Inverse mode at  36     Hk =   7.879
 MRCHUE: Inverse mode at  37     Hk =   8.799
 MRCHUE: Inverse mode at  38     Hk =   9.482
 MRCHUE: Inverse mode at  39     Hk =   4.885
 MRCHUE: Inverse mode at  40     Hk =   2.982
 MRCHUE: Convergence failed at  74  side 2    Res =  0.1210E+01
 MRCHUE: Convergence failed at  76  side 2    Res =  0.4424E-02

 MRCHDU: Convergence failed at  88  side 1    Res =  0.2320E+03
 Side 1  free  transition at x/c =  0.7190   72
 Side 2  free  transition at x/c =  0.2939   38

   1   rms: 0.6158E+00   max: 0.3150E+01   D at   76  2   RLX: 0.304
       a =  2.000      CL =  1.2351
      Cm = -0.2940     CD =  0.00698   =>   CDf =  0.00672    CDp =  0.00026

 Side 1  free  transition at x/c =  0.7167   71
 Side 2  free  transition at x/c =  0.2844   39

   2   rms: 0.3145E+00   max: 0.1271E+01   D at   78  2   RLX: 0.465
       a =  2.000      CL =  1.1471
      Cm = -0.2730     CD =  0.01098   =>   CDf =  0.00656    CDp =  0.00442

 Side 1  free  transition at x/c =  0.7138   71
 Side 2  free  transition at x/c =  0.2799   39

   3   rms: 0.1434E+00   max: 0.5740E+00   D at   81  2   RLX: 0.917
       a =  2.000      CL =  1.0859
      Cm = -0.2573     CD =  0.01602   =>   CDf =  0.00690    CDp =  0.00912

 Side 1  free  transition at x/c =  0.7100   70
 Side 2  free  transition at x/c =  0.2768   40

   4   rms: 0.2124E-01   max: -.2056E+00   D at   42  2
       a =  2.000      CL =  1.0808
      Cm = -0.2557     CD =  0.01784   =>   CDf =  0.00690    CDp =  0.01094

 Side 1  free  transition at x/c =  0.7085   70
 Side 2  free  transition at x/c =  0.2737   39

   5   rms: 0.6116E-02   max: -.5776E-01   D at   41  2
       a =  2.000      CL =  1.0807
      Cm = -0.2557     CD =  0.01790   =>   CDf =  0.00693    CDp =  0.01098

 Side 1  free  transition at x/c =  0.7085   70
 Side 2  free  transition at x/c =  0.2729   39

   6   rms: 0.4133E-03   max: 0.3180E-02   D at   39  2
       a =  2.000      CL =  1.0807
      Cm = -0.2557     CD =  0.01790   =>   CDf =  0.00692    CDp =  0.01098

 Side 1  free  transition at x/c =  0.7085   70
 Side 2  free  transition at x/c =  0.2728   39

   7   rms: 0.1979E-05   max: 0.1228E-04   D at   52  2
       a =  2.000      CL =  1.0807
      Cm = -0.2557     CD =  0.01790   =>   CDf =  0.00692    CDp =  0.01098

 Point added to stored polar  1
 Point written to save file  000097M0.04.log                                 
 Dump file unspecified or not available
 Calculating wake trajectory ...
 Calculating source influence matrix ...

 Solving BL system ...

 Side 1  free  transition at x/c =  0.7085   70
 Side 2  free  transition at x/c =  0.2728   39

   1   rms: 0.1525E+00   max: -.8226E+00   T at   39  2   RLX: 0.608
       a =  3.000      CL =  1.1576
      Cm = -0.2574     CD =  0.01791   =>   CDf =  0.00675    CDp =  0.01115

 MRCHDU: Convergence failed at  39  side 2    Res =  0.2202E+01
 MRCHDU: Convergence failed at  40  side 2    Res =  0.1860E+02
 MRCHDU: Convergence failed at  41  side 2    Res =  0.7667E+01
 MRCHDU: Convergence failed at  42  side 2    Res =  0.1678E+02
 MRCHDU: Convergence failed at  43  side 2    Res =  0.2436E+02
 MRCHDU: Convergence failed at  44  side 2    Res =  0.2720E+02
 MRCHDU: Convergence failed at  45  side 2    Res =  0.2570E+02
 MRCHDU: Convergence failed at  46  side 2    Res =  0.2351E+02
 MRCHDU: Convergence failed at  47  side 2    Res =  0.2123E+02
 MRCHDU: Convergence failed at  48  side 2    Res =  0.1930E+02
 MRCHDU: Convergence failed at  49  side 2    Res =  0.1780E+02
 MRCHDU: Convergence failed at  50  side 2    Res =  0.1665E+02
 MRCHDU: Convergence failed at  51  side 2    Res =  0.1611E+02
 MRCHDU: Convergence failed at  52  side 2    Res =  0.1580E+02
 MRCHDU: Convergence failed at  53  side 2    Res =  0.1403E+02
 MRCHDU: Convergence failed at  54  side 2    Res =  0.1425E+02
 MRCHDU: Convergence failed at  55  side 2    Res =  0.1431E+02
 MRCHDU: Convergence failed at  56  side 2    Res =  0.1423E+02
 MRCHDU: Convergence failed at  57  side 2    Res =  0.1634E+02
 MRCHDU: Convergence failed at  58  side 2    Res =  0.1684E+02
 MRCHDU: Convergence failed at  59  side 2    Res =  0.1755E+02
 MRCHDU: Convergence failed at  60  side 2    Res =  0.1839E+02
 MRCHDU: Convergence failed at  61  side 2    Res =  0.1950E+02
 MRCHDU: Convergence failed at  62  side 2    Res =  0.2084E+02
 MRCHDU: Convergence failed at  63  side 2    Res =  0.2261E+02
 MRCHDU: Convergence failed at  64  side 2    Res =  0.2485E+02
 MRCHDU: Convergence failed at  65  side 2    Res =  0.2801E+02
 MRCHDU: Convergence failed at  66  side 2    Res =  0.3225E+02
 MRCHDU: Convergence failed at  67  side 2    Res =  0.3796E+02
 MRCHDU: Convergence failed at  68  side 2    Res =  0.4685E+02
 MRCHDU: Convergence failed at  69  side 2    Res =  0.6095E+02
 MRCHDU: Convergence failed at  70  side 2    Res =  0.8794E+02
 MRCHDU: Convergence failed at  71  side 2    Res =  0.1282E+03
 MRCHDU: Convergence failed at  72  side 2    Res =  0.1813E+03
 MRCHDU: Convergence failed at  73  side 2    Res =  0.2344E+03
 MRCHDU: Convergence failed at  74  side 2    Res =  0.1816E+03
 MRCHDU: Convergence failed at  75  side 2    Res =  0.1034E+03
 Side 1  free  transition at x/c =  0.7031   71
 Side 2  free  transition at x/c =  0.2884   39

   2   rms: 0.5311E+00   max: 0.2041E+01   T at   57  2   RLX: 0.731
       a =  3.000      CL =  1.0283
      Cm = -0.2052     CD =  0.01673   =>   CDf =  0.00492    CDp =  0.01182

 Side 1  free  transition at x/c =  0.7012   70
 Side 2  free  transition at x/c =  0.2712   38

   3   rms: 0.1070E+01   max: 0.1244E+02   T at   38  2   RLX: 0.077
       a =  3.000      CL =  1.0796
      Cm = -0.2214     CD =  0.02409   =>   CDf =  0.00574    CDp =  0.01835

 Side 1  free  transition at x/c =  0.7006   70
 Side 2  free  transition at x/c =  0.2562   38

   4   rms: 0.1705E+00   max: -.1005E+01   T at   38  2   RLX: 0.498
       a =  3.000      CL =  1.1113
      Cm = -0.2307     CD =  0.02509   =>   CDf =  0.00552    CDp =  0.01957

 Side 1  free  transition at x/c =  0.6984   70
 Side 2  free  transition at x/c =  0.2592   38

   5   rms: 0.1969E+00   max: -.1031E+01   T at   38  2   RLX: 0.485
       a =  3.000      CL =  1.1454
      Cm = -0.2412     CD =  0.02387   =>   CDf =  0.00524    CDp =  0.01863

 Side 1  free  transition at x/c =  0.6980   71
 Side 2  free  transition at x/c =  0.2675   37

   6   rms: 0.8379E+00   max: -.7411E+01   T at   37  2   RLX: 0.067
       a =  3.000      CL =  1.1651
      Cm = -0.2464     CD =  0.02345   =>   CDf =  0.00561    CDp =  0.01784

 Side 1  free  transition at x/c =  0.6983   71
 Side 2  free  transition at x/c =  0.2782   38

   7   rms: 0.2512E+00   max: -.1234E+01   D at   49  2   RLX: 0.405
       a =  3.000      CL =  1.1840
      Cm = -0.2521     CD =  0.01973   =>   CDf =  0.00598    CDp =  0.01375

 Side 1  free  transition at x/c =  0.6983   71
 Side 2  free  transition at x/c =  0.2877   38

   8   rms: 0.4016E+00   max: -.2169E+01   D at   44  2   RLX: 0.231
       a =  3.000      CL =  1.1923
      Cm = -0.2547     CD =  0.01942   =>   CDf =  0.00618    CDp =  0.01324

 Side 1  free  transition at x/c =  0.6985   71
 Side 2  free  transition at x/c =  0.3015   39

   9   rms: 0.1273E+00   max: -.9615E+00   D at   47  2   RLX: 0.520
       a =  3.000      CL =  1.1920
      Cm = -0.2557     CD =  0.01804   =>   CDf =  0.00653    CDp =  0.01151

 Side 1  free  transition at x/c =  0.6984   71
 Side 2  free  transition at x/c =  0.2995   39

  10   rms: 0.5727E-01   max: -.5404E+00   D at   48  2   RLX: 0.925
       a =  3.000      CL =  1.1914
      Cm = -0.2559     CD =  0.01816   =>   CDf =  0.00666    CDp =  0.01151

 Side 1  free  transition at x/c =  0.6983   71
 Side 2  free  transition at x/c =  0.2945   39

  11   rms: 0.1836E-01   max: 0.1417E+00   T at   39  2
       a =  3.000      CL =  1.1893
      Cm = -0.2552     CD =  0.01855   =>   CDf =  0.00679    CDp =  0.01176

 Side 1  free  transition at x/c =  0.6982   71
 Side 2  free  transition at x/c =  0.2920   38

  12   rms: 0.9357E-02   max: -.1334E+00   D at   38  2
       a =  3.000      CL =  1.1897
      Cm = -0.2554     CD =  0.01838   =>   CDf =  0.00678    CDp =  0.01160

 Side 1  free  transition at x/c =  0.6983   71
 Side 2  free  transition at x/c =  0.2925   38

  13   rms: 0.8088E-03   max: 0.8682E-02   D at   39  2
       a =  3.000      CL =  1.1898
      Cm = -0.2554     CD =  0.01837   =>   CDf =  0.00678    CDp =  0.01159

 Side 1  free  transition at x/c =  0.6983   71
 Side 2  free  transition at x/c =  0.2924   38

  14   rms: 0.3788E-05   max: 0.3229E-04   D at   39  2
       a =  3.000      CL =  1.1898
      Cm = -0.2554     CD =  0.01837   =>   CDf =  0.00678    CDp =  0.01159

 Point added to stored polar  1
 Point written to save file  000097M0.04.log                                 
 Dump file unspecified or not available
 Calculating wake trajectory ...
 Calculating source influence matrix ...

 Solving BL system ...

 Side 1  free  transition at x/c =  0.6983   71
 Side 2  free  transition at x/c =  0.2924   38

   1   rms: 0.1294E+00   max: -.6475E+00   T at   38  2   RLX: 0.772
       a =  4.000      CL =  1.2379
      Cm = -0.2486     CD =  0.01959   =>   CDf =  0.00660    CDp =  0.01299

 MRCHDU: Convergence failed at  38  side 2    Res =  0.2269E+01
 MRCHDU: Convergence failed at  39  side 2    Res =  0.6954E+01
 MRCHDU: Convergence failed at  40  side 2    Res =  0.3920E+02
 MRCHDU: Convergence failed at  41  side 2    Res =  0.4652E+02
 MRCHDU: Convergence failed at  42  side 2    Res =  0.6815E+02
 MRCHDU: Convergence failed at  43  side 2    Res =  0.2297E+04
 MRCHDU: Convergence failed at  44  side 2    Res =  0.7072E+02
 MRCHDU: Convergence failed at  45  side 2    Res =  0.3701E+02
 MRCHDU: Convergence failed at  46  side 2    Res =  0.2755E+02
 MRCHDU: Convergence failed at  47  side 2    Res =  0.2352E+02
 MRCHDU: Convergence failed at  48  side 2    Res =  0.2124E+02
 MRCHDU: Convergence failed at  49  side 2    Res =  0.2009E+02
 MRCHDU: Convergence failed at  50  side 2    Res =  0.1941E+02
 MRCHDU: Convergence failed at  51  side 2    Res =  0.1902E+02
 MRCHDU: Convergence failed at  52  side 2    Res =  0.1886E+02
 MRCHDU: Convergence failed at  53  side 2    Res =  0.1892E+02
 MRCHDU: Convergence failed at  54  side 2    Res =  0.1916E+02
 MRCHDU: Convergence failed at  55  side 2    Res =  0.1960E+02
 MRCHDU: Convergence failed at  56  side 2    Res =  0.2025E+02
 MRCHDU: Convergence failed at  57  side 2    Res =  0.2117E+02
 MRCHDU: Convergence failed at  58  side 2    Res =  0.2227E+02
 MRCHDU: Convergence failed at  59  side 2    Res =  0.2391E+02
 MRCHDU: Convergence failed at  60  side 2    Res =  0.2557E+02
 MRCHDU: Convergence failed at  61  side 2    Res =  0.2850E+02
 MRCHDU: Convergence failed at  62  side 2    Res =  0.3213E+02
 MRCHDU: Convergence failed at  63  side 2    Res =  0.3816E+02
 MRCHDU: Convergence failed at  64  side 2    Res =  0.4548E+02
 MRCHDU: Convergence failed at  65  side 2    Res =  0.6240E+02
 MRCHDU: Convergence failed at  66  side 2    Res =  0.9818E+02
 MRCHDU: Convergence failed at  67  side 2    Res =  0.2895E+03
 MRCHDU: Convergence failed at  68  side 2    Res =  0.2661E+03
 MRCHDU: Convergence failed at  69  side 2    Res =  0.9848E+02
 MRCHDU: Convergence failed at  70  side 2    Res =  0.7815E+02
 MRCHDU: Convergence failed at  71  side 2    Res =  0.1216E+03
 MRCHDU: Convergence failed at  72  side 2    Res =  0.1053E+03
 MRCHDU: Convergence failed at  73  side 2    Res =  0.1170E+02
 Side 1  free  transition at x/c =  0.6862   72
 Side 2  free  transition at x/c =  0.3095   38

   2   rms: 0.4627E+00   max: 0.1869E+01   D at   50  2   RLX: 0.464
       a =  4.000      CL =  1.0357
      Cm = -0.1764     CD =  0.01880   =>   CDf =  0.00474    CDp =  0.01405

 MRCHDU: Convergence failed at  46  side 2    Res =  0.1504E+00
 MRCHDU: Convergence failed at  48  side 2    Res =  0.1468E+00
 Side 1  free  transition at x/c =  0.6857   71
 Side 2  free  transition at x/c =  0.2903   38

   3   rms: 0.2952E+00   max: -.2514E+01   T at   38  2   RLX: 0.199
       a =  4.000      CL =  1.1546
      Cm = -0.2128     CD =  0.02464   =>   CDf =  0.00559    CDp =  0.01905

 Side 1  free  transition at x/c =  0.6862   71
 Side 2  free  transition at x/c =  0.3061   39

   4   rms: 0.2036E+00   max: -.1033E+01   D at   45  2   RLX: 0.484
       a =  4.000      CL =  1.2318
      Cm = -0.2358     CD =  0.02120   =>   CDf =  0.00557    CDp =  0.01563

 Side 1  free  transition at x/c =  0.6855   72
 Side 2  free  transition at x/c =  0.3143   38

   5   rms: 0.2656E+00   max: -.1208E+01   D at   43  2   RLX: 0.414
       a =  4.000      CL =  1.2793
      Cm = -0.2486     CD =  0.01945   =>   CDf =  0.00588    CDp =  0.01357

 MRCHDU: Convergence failed at  39  side 2    Res =  0.1401E+02
 MRCHDU: Convergence failed at  40  side 2    Res =  0.1144E+02
 MRCHDU: Convergence failed at  41  side 2    Res =  0.1370E+02
 MRCHDU: Convergence failed at  42  side 2    Res =  0.1163E+03
 MRCHDU: Convergence failed at  43  side 2    Res =  0.1108E+03
 MRCHDU: Convergence failed at  44  side 2    Res =  0.8912E+02
 MRCHDU: Convergence failed at  45  side 2    Res =  0.2159E+03
 MRCHDU: Convergence failed at  46  side 2    Res =  0.1795E+03
 MRCHDU: Convergence failed at  47  side 2    Res =  0.5720E+02
 MRCHDU: Convergence failed at  48  side 2    Res =  0.2632E+02
 MRCHDU: Convergence failed at  49  side 2    Res =  0.1420E+02
 MRCHDU: Convergence failed at  50  side 2    Res =  0.2395E+02
 MRCHDU: Convergence failed at  51  side 2    Res =  0.1220E+03
 MRCHDU: Convergence failed at  52  side 2    Res =  0.2455E+03
 MRCHDU: Convergence failed at  53  side 2    Res =  0.3707E+03
 MRCHDU: Convergence failed at  54  side 2    Res =  0.9277E+02
 MRCHDU: Convergence failed at  55  side 2    Res =  0.5072E+02
 MRCHDU: Convergence failed at  56  side 2    Res =  0.3808E+02
 MRCHDU: Convergence failed at  57  side 2    Res =  0.3381E+02
 MRCHDU: Convergence failed at  58  side 2    Res =  0.4595E+02
 MRCHDU: Convergence failed at  59  side 2    Res =  0.6056E+01
 MRCHDU: Convergence failed at  60  side 2    Res =  0.5285E+01
 MRCHDU: Convergence failed at  61  side 2    Res =  0.1794E+02
 MRCHDU: Convergence failed at  62  side 2    Res =  0.1746E+04
 MRCHDU: Convergence failed at  63  side 2    Res =  0.2187E+03
 MRCHDU: Convergence failed at  64  side 2    Res =  0.7436E+02
 MRCHDU: Convergence failed at  65  side 2    Res =  0.4548E+02
 MRCHDU: Convergence failed at  66  side 2    Res =  0.4039E+02
 MRCHDU: Convergence failed at  67  side 2    Res =  0.2852E+02
 MRCHDU: Convergence failed at  68  side 2    Res =  0.2054E+02
 MRCHDU: Convergence failed at  69  side 2    Res =  0.1327E+02
 MRCHDU: Convergence failed at  70  side 2    Res =  0.9363E+01
 MRCHDU: Convergence failed at  71  side 2    Res =  0.6717E+01
 MRCHDU: Convergence failed at  72  side 2    Res =  0.4952E+01
 MRCHDU: Convergence failed at  73  side 2    Res =  0.3578E+01
 Side 1  free  transition at x/c =  0.6851   72
 Side 2  free  transition at x/c =  0.3238   39

   6   rms: 0.4971E+00   max: 0.2092E+01   T at   40  2   RLX: 0.282
       a =  4.000      CL =  1.0453
      Cm = -0.1724     CD =  0.01820   =>   CDf =  0.00472    CDp =  0.01348

 MRCHDU: Convergence failed at  57  side 2    Res =  0.1340E+02
 MRCHDU: Convergence failed at  58  side 2    Res =  0.1999E+01
 Side 1  free  transition at x/c =  0.6838   71
 Side 2  free  transition at x/c =  0.3073   38

   7   rms: 0.5648E+00   max: -.1999E+01   D at   84  1   RLX: 0.250
       a =  4.000      CL =  1.2511
      Cm = -0.2222     CD =  0.01964   =>   CDf =  0.00737    CDp =  0.01227

 MRCHDU: Convergence failed at  89  side 1    Res =  0.1110E+01
 Side 1  free  transition at x/c =  0.6866   72
 Side 2  free  transition at x/c =  0.3187   39

   8   rms: 0.1976E+00   max: -.1285E+01   D at   49  2   RLX: 0.389
       a =  4.000      CL =  1.2842
      Cm = -0.2392     CD =  0.01703   =>   CDf =  0.00734    CDp =  0.00969

 Side 1  free  transition at x/c =  0.6865   72
 Side 2  free  transition at x/c =  0.3203   39

   9   rms: 0.1060E+00   max: 0.5957E+00   D at   54  2
       a =  4.000      CL =  1.3147
      Cm = -0.2577     CD =  0.01787   =>   CDf =  0.00712    CDp =  0.01076

 Side 1  free  transition at x/c =  0.6863   72
 Side 2  free  transition at x/c =  0.3161   39

  10   rms: 0.1475E-01   max: 0.7505E-01   D at   72  1
       a =  4.000      CL =  1.3092
      Cm = -0.2566     CD =  0.01817   =>   CDf =  0.00668    CDp =  0.01149

 Side 1  free  transition at x/c =  0.6855   72
 Side 2  free  transition at x/c =  0.3145   38

  11   rms: 0.1959E-02   max: -.2646E-01   D at   38  2
       a =  4.000      CL =  1.3088
      Cm = -0.2565     CD =  0.01817   =>   CDf =  0.00671    CDp =  0.01146

 Side 1  free  transition at x/c =  0.6855   72
 Side 2  free  transition at x/c =  0.3144   38

  12   rms: 0.9639E-04   max: 0.1026E-02   D at   39  2
       a =  4.000      CL =  1.3088
      Cm = -0.2565     CD =  0.01817   =>   CDf =  0.00670    CDp =  0.01146

 Point added to stored polar  1
 Point written to save file  000097M0.04.log                                 
 Dump file unspecified or not available
 Calculating wake trajectory ...
 Calculating source influence matrix ...

 Solving BL system ...

 Side 1  free  transition at x/c =  0.6855   72
 Side 2  free  transition at x/c =  0.3144   38

   1   rms: 0.2430E+00   max: -.1116E+01   T at   38  2   RLX: 0.448
       a =  5.000      CL =  1.4011
      Cm = -0.2635     CD =  0.01698   =>   CDf =  0.00651    CDp =  0.01046

 MRCHDU: Convergence failed at  73  side 1    Res =  0.2154E+01
 MRCHDU: Convergence failed at  74  side 1    Res =  0.6359E+01
 MRCHDU: Convergence failed at  75  side 1    Res =  0.3860E+01
 MRCHDU: Convergence failed at  76  side 1    Res =  0.4307E+01
 MRCHDU: Convergence failed at  77  side 1    Res =  0.5399E+01
 MRCHDU: Convergence failed at  78  side 1    Res =  0.7428E+01
 MRCHDU: Convergence failed at  79  side 1    Res =  0.1137E+02
 MRCHDU: Convergence failed at  80  side 1    Res =  0.2037E+02
 MRCHDU: Convergence failed at  81  side 1    Res =  0.5925E+02
 MRCHDU: Convergence failed at  82  side 1    Res =  0.1263E+02
 MRCHDU: Convergence failed at  83  side 1    Res =  0.2128E+02
 MRCHDU: Convergence failed at  84  side 1    Res =  0.2631E+02
 MRCHDU: Convergence failed at  85  side 1    Res =  0.3551E+02
 MRCHDU: Convergence failed at  86  side 1    Res =  0.1032E+03
 MRCHDU: Convergence failed at  87  side 1    Res =  0.2383E+02
 MRCHDU: Convergence failed at  88  side 1    Res =  0.1533E+02
 MRCHDU: Convergence failed at  89  side 1    Res =  0.2638E+02
 MRCHDU: Convergence failed at  90  side 1    Res =  0.4519E+02
 MRCHDU: Convergence failed at  39  side 2    Res =  0.1155E+02
 MRCHDU: Convergence failed at  40  side 2    Res =  0.3732E+01
 MRCHDU: Convergence failed at  41  side 2    Res =  0.3665E+01
 MRCHDU: Convergence failed at  42  side 2    Res =  0.8420E+01
 MRCHDU: Convergence failed at  43  side 2    Res =  0.1494E+02
 MRCHDU: Convergence failed at  44  side 2    Res =  0.2211E+02
 MRCHDU: Convergence failed at  45  side 2    Res =  0.2643E+02
 MRCHDU: Convergence failed at  46  side 2    Res =  0.2605E+02
 MRCHDU: Convergence failed at  47  side 2    Res =  0.2381E+02
 MRCHDU: Convergence failed at  48  side 2    Res =  0.1876E+02
 MRCHDU: Convergence failed at  49  side 2    Res =  0.1546E+02
 MRCHDU: Convergence failed at  50  side 2    Res =  0.9175E+02
 MRCHDU: Convergence failed at  51  side 2    Res =  0.6115E+02
 MRCHDU: Convergence failed at  52  side 2    Res =  0.6213E+02
 MRCHDU: Convergence failed at  53  side 2    Res =  0.5638E+02
 MRCHDU: Convergence failed at  54  side 2    Res =  0.5490E+02
 MRCHDU: Convergence failed at  55  side 2    Res =  0.5659E+02
 MRCHDU: Convergence failed at  56  side 2    Res =  0.6218E+02
 MRCHDU: Convergence failed at  57  side 2    Res =  0.7315E+02
 MRCHDU: Convergence failed at  58  side 2    Res =  0.7801E+02
 MRCHDU: Convergence failed at  59  side 2    Res =  0.1227E+03
 MRCHDU: Convergence failed at  60  side 2    Res =  0.1100E+02
 MRCHDU: Convergence failed at  61  side 2    Res =  0.1091E+02
 MRCHDU: Convergence failed at  62  side 2    Res =  0.1249E+02
 MRCHDU: Convergence failed at  63  side 2    Res =  0.1147E+02
 MRCHDU: Convergence failed at  64  side 2    Res =  0.9862E+01
 MRCHDU: Convergence failed at  65  side 2    Res =  0.7748E+01
 MRCHDU: Convergence failed at  66  side 2    Res =  0.5672E+01
 MRCHDU: Convergence failed at  67  side 2    Res =  0.3614E+01
 MRCHDU: Convergence failed at  68  side 2    Res =  0.8556E+01
 MRCHDU: Convergence failed at  69  side 2    Res =  0.7769E+01
 MRCHDU: Convergence failed at  70  side 2    Res =  0.8613E+01
 MRCHDU: Convergence failed at  71  side 2    Res =  0.1441E+02
 MRCHDU: Convergence failed at  72  side 2    Res =  0.3617E+02
 Side 1  free  transition at x/c =  0.6781   72
 Side 2  free  transition at x/c =  0.3335   38

   2   rms: 0.1066E+01   max: 0.5092E+01   D at   90  1   RLX: 0.179
       a =  5.000      CL =  1.3844
      Cm = -0.3286     CD =  0.00515   =>   CDf =  0.00395    CDp =  0.00119

 MRCHDU: Convergence failed at  45  side 2    Res =  0.2352E+00
 MRCHDU: Convergence failed at  46  side 2    Res =  0.1772E+00
 MRCHDU: Convergence failed at  47  side 2    Res =  0.7590E-01
 MRCHDU: Convergence failed at  62  side 2    Res =  0.5775E-01
 Side 1  free  transition at x/c =  0.6681   72
 Side 2  free  transition at x/c =  0.3132   37

   3   rms: 0.4521E+00   max: -.3675E+01   T at   37  2   RLX: 0.136
       a =  5.000      CL =  1.4048
      Cm = -0.3029     CD =  0.01803   =>   CDf =  0.00519    CDp =  0.01285

 MRCHDU: Convergence failed at  38  side 2    Res =  0.8935E+02
 MRCHDU: Convergence failed at  62  side 2    Res =  0.9967E-01
 Side 1  free  transition at x/c =  0.6679   72
 Side 2  free  transition at x/c =  0.3288   38

   4   rms: 0.3649E+00   max: -.1847E+01   D at   62  2   RLX: 0.271
       a =  5.000      CL =  1.4245
      Cm = -0.2938     CD =  0.01612   =>   CDf =  0.00520    CDp =  0.01093

 MRCHDU: Convergence failed at  47  side 2    Res =  0.1165E+00
 MRCHDU: Convergence failed at  48  side 2    Res =  0.4456E+00
 MRCHDU: Convergence failed at  51  side 2    Res =  0.1790E+01
 MRCHDU: Convergence failed at  52  side 2    Res =  0.3591E+01
 MRCHDU: Convergence failed at  62  side 2    Res =  0.3734E+00
 MRCHDU: Convergence failed at  63  side 2    Res =  0.6098E+00
 MRCHDU: Convergence failed at  64  side 2    Res =  0.5878E-01
 MRCHDU: Convergence failed at  67  side 2    Res =  0.4577E+01
 Side 1  free  transition at x/c =  0.6683   72
 Side 2  free  transition at x/c =  0.3401   39

   5   rms: 0.3162E+00   max: -.1410E+01   D at   64  2   RLX: 0.355
       a =  5.000      CL =  1.4729
      Cm = -0.2921     CD =  0.01435   =>   CDf =  0.00561    CDp =  0.00874

 MRCHDU: Convergence failed at  49  side 2    Res =  0.1663E-01
 MRCHDU: Convergence failed at  64  side 2    Res =  0.8109E-01
 Side 1  free  transition at x/c =  0.6714   72
 Side 2  free  transition at x/c =  0.3483   39

   6   rms: 0.6564E+00   max: -.3074E+01   D at   81  1   RLX: 0.163
       a =  5.000      CL =  1.4889
      Cm = -0.2869     CD =  0.01230   =>   CDf =  0.00550    CDp =  0.00680

 MRCHDU: Convergence failed at  44  side 2    Res =  0.1158E+01
 MRCHDU: Convergence failed at  45  side 2    Res =  0.8954E+00
 MRCHDU: Convergence failed at  46  side 2    Res =  0.1341E+01
 MRCHDU: Convergence failed at  47  side 2    Res =  0.4387E+01
 MRCHDU: Convergence failed at  63  side 2    Res =  0.1102E+00
 MRCHDU: Convergence failed at  64  side 2    Res =  0.7790E-01
 Side 1  free  transition at x/c =  0.6758   73
 Side 2  free  transition at x/c =  0.3670   39

   7   rms: 0.3699E+00   max: -.2049E+01   D at   58  2   RLX: 0.244
       a =  5.000      CL =  1.5069
      Cm = -0.2893     CD =  0.01205   =>   CDf =  0.00586    CDp =  0.00619

 MRCHDU: Convergence failed at  64  side 2    Res =  0.2169E-01
 Side 1  free  transition at x/c =  0.6726   73
 Side 2  free  transition at x/c =  0.3676   39

   8   rms: 0.4216E+00   max: -.2839E+01   D at   58  2   RLX: 0.176
       a =  5.000      CL =  1.5133
      Cm = -0.2875     CD =  0.01277   =>   CDf =  0.00606    CDp =  0.00671

 Side 1  free  transition at x/c =  0.6700   73
 Side 2  free  transition at x/c =  0.3665   39

   9   rms: 0.2552E+00   max: -.1764E+01   D at   61  2   RLX: 0.283
       a =  5.000      CL =  1.5038
      Cm = -0.2816     CD =  0.01350   =>   CDf =  0.00629    CDp =  0.00722

 Side 1  free  transition at x/c =  0.6675   73
 Side 2  free  transition at x/c =  0.3607   39

  10   rms: 0.1902E+00   max: -.1309E+01   D at   62  2   RLX: 0.382
       a =  5.000      CL =  1.4827
      Cm = -0.2737     CD =  0.01457   =>   CDf =  0.00643    CDp =  0.00815

 Side 1  free  transition at x/c =  0.6655   73
 Side 2  free  transition at x/c =  0.3551   38

  11   rms: 0.1226E+00   max: -.9388E+00   D at   63  2   RLX: 0.533
       a =  5.000      CL =  1.4571
      Cm = -0.2656     CD =  0.01580   =>   CDf =  0.00653    CDp =  0.00928

 Side 1  free  transition at x/c =  0.6639   72
 Side 2  free  transition at x/c =  0.3455   38

  12   rms: 0.8110E-01   max: -.5749E+00   D at   63  2   RLX: 0.870
       a =  5.000      CL =  1.4095
      Cm = -0.2541     CD =  0.01723   =>   CDf =  0.00652    CDp =  0.01071

 Side 1  free  transition at x/c =  0.6620   72
 Side 2  free  transition at x/c =  0.3379   38

  13   rms: 0.1959E-01   max: -.1505E+00   D at   63  2
       a =  5.000      CL =  1.3940
      Cm = -0.2506     CD =  0.01779   =>   CDf =  0.00674    CDp =  0.01105

 Side 1  free  transition at x/c =  0.6615   71
 Side 2  free  transition at x/c =  0.3365   39

  14   rms: 0.4359E-02   max: 0.3020E-01   T at   39  2
       a =  5.000      CL =  1.3927
      Cm = -0.2503     CD =  0.01782   =>   CDf =  0.00657    CDp =  0.01125

 Side 1  free  transition at x/c =  0.6615   71
 Side 2  free  transition at x/c =  0.3360   38

  15   rms: 0.7468E-03   max: -.1119E-01   D at   38  2
       a =  5.000      CL =  1.3927
      Cm = -0.2503     CD =  0.01781   =>   CDf =  0.00657    CDp =  0.01124

 Side 1  free  transition at x/c =  0.6615   71
 Side 2  free  transition at x/c =  0.3360   38

  16   rms: 0.7719E-05   max: 0.8305E-04   D at   39  2
       a =  5.000      CL =  1.3927
      Cm = -0.2503     CD =  0.01781   =>   CDf =  0.00657    CDp =  0.01124

 Point added to stored polar  1
 Point written to save file  000097M0.04.log                                 
 Dump file unspecified or not available
 Calculating wake trajectory ...
 Calculating source influence matrix ...

 Solving BL system ...

 Side 1  free  transition at x/c =  0.6615   71
 Side 2  free  transition at x/c =  0.3360   38

   1   rms: 0.1241E+00   max: 0.5712E+00   T at   71  1   RLX: 0.907
       a =  6.000      CL =  1.3922
      Cm = -0.2307     CD =  0.01905   =>   CDf =  0.00637    CDp =  0.01268

 MRCHDU: Convergence failed at  39  side 2    Res =  0.6801E+01
 MRCHDU: Convergence failed at  40  side 2    Res =  0.3483E+01
 MRCHDU: Convergence failed at  41  side 2    Res =  0.2905E+01
 MRCHDU: Convergence failed at  42  side 2    Res =  0.5408E+01
 MRCHDU: Convergence failed at  43  side 2    Res =  0.8250E+01
 MRCHDU: Convergence failed at  44  side 2    Res =  0.1123E+02
 MRCHDU: Convergence failed at  45  side 2    Res =  0.1359E+02
 MRCHDU: Convergence failed at  46  side 2    Res =  0.1496E+02
 MRCHDU: Convergence failed at  47  side 2    Res =  0.1544E+02
 MRCHDU: Convergence failed at  48  side 2    Res =  0.1400E+02
 MRCHDU: Convergence failed at  49  side 2    Res =  0.1354E+02
 MRCHDU: Convergence failed at  50  side 2    Res =  0.1303E+02
 MRCHDU: Convergence failed at  51  side 2    Res =  0.1253E+02
 MRCHDU: Convergence failed at  52  side 2    Res =  0.1123E+02
 MRCHDU: Convergence failed at  53  side 2    Res =  0.1005E+02
 MRCHDU: Convergence failed at  54  side 2    Res =  0.9768E+01
 MRCHDU: Convergence failed at  55  side 2    Res =  0.9470E+01
 MRCHDU: Convergence failed at  56  side 2    Res =  0.9078E+01
 MRCHDU: Convergence failed at  57  side 2    Res =  0.9124E+01
 MRCHDU: Convergence failed at  58  side 2    Res =  0.8817E+01
 MRCHDU: Convergence failed at  59  side 2    Res =  0.7817E+01
 MRCHDU: Convergence failed at  60  side 2    Res =  0.6504E+01
 MRCHDU: Convergence failed at  61  side 2    Res =  0.5145E+01
 MRCHDU: Convergence failed at  62  side 2    Res =  0.3604E+01
 MRCHDU: Convergence failed at  63  side 2    Res =  0.2617E+01
 MRCHDU: Convergence failed at  64  side 2    Res =  0.5065E+01
 MRCHDU: Convergence failed at  65  side 2    Res =  0.4707E+01
 MRCHDU: Convergence failed at  66  side 2    Res =  0.4763E+01
 Side 1  free  transition at x/c =  0.6348   71
 Side 2  free  transition at x/c =  0.3556   38

   2   rms: 0.3050E+00   max: 0.1760E+01   T at   38  2   RLX: 0.472
       a =  6.000      CL =  1.3388
      Cm = -0.2035     CD =  0.01954   =>   CDf =  0.00476    CDp =  0.01478

 MRCHDU: Convergence failed at  48  side 2    Res =  0.1982E+00
 MRCHDU: Convergence failed at  49  side 2    Res =  0.1899E+00
 MRCHDU: Convergence failed at  50  side 2    Res =  0.1866E+00
 MRCHDU: Convergence failed at  51  side 2    Res =  0.1883E+00
 MRCHDU: Convergence failed at  52  side 2    Res =  0.1948E+00
 MRCHDU: Convergence failed at  53  side 2    Res =  0.2056E+00
 MRCHDU: Convergence failed at  54  side 2    Res =  0.2196E+00
 MRCHDU: Convergence failed at  55  side 2    Res =  0.2365E+00
 MRCHDU: Convergence failed at  56  side 2    Res =  0.2552E+00
 MRCHDU: Convergence failed at  57  side 2    Res =  0.2753E+00
 MRCHDU: Convergence failed at  58  side 2    Res =  0.2970E+00
 MRCHDU: Convergence failed at  59  side 2    Res =  0.3203E+00
 MRCHDU: Convergence failed at  60  side 2    Res =  0.3445E+00
 MRCHDU: Convergence failed at  61  side 2    Res =  0.3692E+00
 MRCHDU: Convergence failed at  62  side 2    Res =  0.3942E+00
 MRCHDU: Convergence failed at  63  side 2    Res =  0.4189E+00
 MRCHDU: Convergence failed at  64  side 2    Res =  0.4431E+00
 MRCHDU: Convergence failed at  65  side 2    Res =  0.4662E+00
 MRCHDU: Convergence failed at  66  side 2    Res =  0.4879E+00
 MRCHDU: Convergence failed at  67  side 2    Res =  0.5503E+00
 MRCHDU: Convergence failed at  68  side 2    Res =  0.6621E+00
 MRCHDU: Convergence failed at  69  side 2    Res =  0.8176E+00
 MRCHDU: Convergence failed at  70  side 2    Res =  0.9738E+00
 MRCHDU: Convergence failed at  71  side 2    Res =  0.1271E+01
 Side 1  free  transition at x/c =  0.6364   71
 Side 2  free  transition at x/c =  0.3348   37

   3   rms: 0.6203E+00   max: 0.7181E+01   T at   37  2   RLX: 0.106
       a =  6.000      CL =  1.3927
      Cm = -0.2414     CD =  0.03701   =>   CDf =  0.00454    CDp =  0.03248

 Side 1  free  transition at x/c =  0.6392   71
 Side 2  free  transition at x/c =  0.3201   37

   4   rms: 0.1035E+01   max: -.2272E+01   D at   71  2   RLX: 0.220
       a =  6.000      CL =  1.1716
      Cm = -0.2192     CD =  0.04371   =>   CDf =  0.00474    CDp =  0.03898

 Side 1  free  transition at x/c =  0.6511   70
 Side 2  free  transition at x/c =  0.3233   39

   5   rms: 0.6332E+01   max: 0.2389E+02   D at    2  2   RLX: 0.023
       a =  6.000      CL =  1.3460
      Cm = -0.2510     CD =  0.04089   =>   CDf =  0.00422    CDp =  0.03667

 MRCHDU: Convergence failed at  72  side 1    Res =  0.4317E+01
 MRCHDU: Convergence failed at  73  side 1    Res =  0.1254E+01
 MRCHDU: Convergence failed at  74  side 1    Res =  0.2242E+01
 MRCHDU: Convergence failed at  75  side 1    Res =  0.3851E+01
 MRCHDU: Convergence failed at  76  side 1    Res =  0.7024E+01
 MRCHDU: Convergence failed at  77  side 1    Res =  0.1494E+02
 MRCHDU: Convergence failed at  78  side 1    Res =  0.4115E+02
 MRCHDU: Convergence failed at  79  side 1    Res =  0.4182E+02
 MRCHDU: Convergence failed at  80  side 1    Res =  0.1470E+02
 MRCHDU: Convergence failed at  81  side 1    Res =  0.6162E+01
 MRCHDU: Convergence failed at  82  side 1    Res =  0.9451E+03
 MRCHDU: Convergence failed at  83  side 1    Res =  0.3583E+02
 MRCHDU: Convergence failed at  84  side 1    Res =  0.2425E+02
 MRCHDU: Convergence failed at  85  side 1    Res =  0.1904E+02
 MRCHDU: Convergence failed at  86  side 1    Res =  0.1174E+02
 MRCHDU: Convergence failed at  87  side 1    Res =  0.2920E+02
 MRCHDU: Convergence failed at  88  side 1    Res =  0.1559E+02
 MRCHDU: Convergence failed at  89  side 1    Res =  0.1542E+02
 MRCHDU: Convergence failed at  90  side 1    Res =  0.6051E+02
 Side 1  free  transition at x/c =  0.6593   71
 Side 2  free  transition at x/c =  0.3273   38

   6   rms: 0.1163E+01   max: 0.5928E+01   D at   90  1   RLX: 0.133
       a =  6.000      CL =  1.5703
      Cm = -0.4149     CD =  0.02281   =>   CDf =  0.00398    CDp =  0.01883

 Side 1  free  transition at x/c =  0.6590   71
 Side 2  free  transition at x/c =  0.3402   39

   7   rms: 0.8423E+00   max: -.2868E+01   D at   66  2   RLX: 0.174
       a =  6.000      CL =  1.5734
      Cm = -0.3916     CD =  0.01621   =>   CDf =  0.00669    CDp =  0.00952

 Side 1  free  transition at x/c =  0.6536   72
 Side 2  free  transition at x/c =  0.3487   38

   8   rms: 0.1131E+01   max: -.5103E+01   T at   38  2   RLX: 0.098
       a =  6.000      CL =  1.5750
      Cm = -0.3815     CD =  0.01519   =>   CDf =  0.00653    CDp =  0.00866

 Side 1  free  transition at x/c =  0.6516   72
 Side 2  free  transition at x/c =  0.3692   39

   9   rms: 0.1040E+01   max: -.4605E+01   T at   39  2   RLX: 0.109
       a =  6.000      CL =  1.5757
      Cm = -0.3701     CD =  0.01138   =>   CDf =  0.00667    CDp =  0.00471

 Side 1  free  transition at x/c =  0.6495   72
 Side 2  free  transition at x/c =  0.3952   40

  10   rms: 0.4426E+00   max: -.1727E+01   D at   71  2   RLX: 0.290
       a =  6.000      CL =  1.5791
      Cm = -0.3397     CD =  0.00877   =>   CDf =  0.00685    CDp =  0.00192

 Side 1  free  transition at x/c =  0.6439   71
 Side 2  free  transition at x/c =  0.3921   40

  11   rms: 0.2938E+00   max: -.1223E+01   D at   71  2   RLX: 0.409
       a =  6.000      CL =  1.5768
      Cm = -0.3081     CD =  0.01012   =>   CDf =  0.00662    CDp =  0.00350

 Side 1  free  transition at x/c =  0.6358   72
 Side 2  free  transition at x/c =  0.3828   39

  12   rms: 0.1958E+00   max: -.6825E+00   D at   70  2   RLX: 0.733
       a =  6.000      CL =  1.5485
      Cm = -0.2697     CD =  0.01343   =>   CDf =  0.00660    CDp =  0.00683

 Side 1  free  transition at x/c =  0.6297   72
 Side 2  free  transition at x/c =  0.3746   38

  13   rms: 0.9192E-01   max: 0.4018E+00   T at   38  2
       a =  6.000      CL =  1.4833
      Cm = -0.2455     CD =  0.01690   =>   CDf =  0.00651    CDp =  0.01039

 Side 1  free  transition at x/c =  0.6322   72
 Side 2  free  transition at x/c =  0.3587   38

  14   rms: 0.3896E-01   max: -.2843E+00   D at   38  2
       a =  6.000      CL =  1.4534
      Cm = -0.2400     CD =  0.01800   =>   CDf =  0.00662    CDp =  0.01138

 Side 1  free  transition at x/c =  0.6341   71
 Side 2  free  transition at x/c =  0.3582   39

  15   rms: 0.8161E-02   max: 0.1156E+00   T at    2  2
       a =  6.000      CL =  1.4557
      Cm = -0.2405     CD =  0.01805   =>   CDf =  0.00617    CDp =  0.01188

 Side 1  free  transition at x/c =  0.6337   72
 Side 2  free  transition at x/c =  0.3580   38

  16   rms: 0.4963E-03   max: 0.6534E-02   D at    3  2
       a =  6.000      CL =  1.4557
      Cm = -0.2405     CD =  0.01805   =>   CDf =  0.00640    CDp =  0.01165

 Side 1  free  transition at x/c =  0.6337   72
 Side 2  free  transition at x/c =  0.3580   38

  17   rms: 0.1766E-03   max: -.2292E-02   D at    4  1
       a =  6.000      CL =  1.4557
      Cm = -0.2405     CD =  0.01805   =>   CDf =  0.00640    CDp =  0.01165

 Side 1  free  transition at x/c =  0.6337   72
 Side 2  free  transition at x/c =  0.3580   38

  18   rms: 0.4394E-05   max: 0.1136E-03   D at    2  1
       a =  6.000      CL =  1.4557
      Cm = -0.2405     CD =  0.01805   =>   CDf =  0.00640    CDp =  0.01165

 Point added to stored polar  1
 Point written to save file  000097M0.04.log                                 
 Dump file unspecified or not available
 Calculating wake trajectory ...
 Calculating source influence matrix ...

 Solving BL system ...

 Side 1  free  transition at x/c =  0.6337   72
 Side 2  free  transition at x/c =  0.3580   38

   1   rms: 0.1805E+00   max: -.9331E+00   T at   38  2   RLX: 0.536
       a =  7.000      CL =  1.5020
      Cm = -0.2376     CD =  0.01750   =>   CDf =  0.00641    CDp =  0.01109

 Side 1  free  transition at x/c =  0.6139   71
 Side 2  free  transition at x/c =  0.3759   38

   2   rms: 0.6934E-01   max: -.4444E+00   D at   71  1
       a =  7.000      CL =  1.4989
      Cm = -0.2277     CD =  0.01903   =>   CDf =  0.00629    CDp =  0.01274

 Side 1  free  transition at x/c =  0.5910   69
 Side 2  free  transition at x/c =  0.3806   39

   3   rms: 0.3257E-01   max: -.3857E+00   D at   70  1
       a =  7.000      CL =  1.4984
      Cm = -0.2278     CD =  0.01927   =>   CDf =  0.00629    CDp =  0.01298

 Side 1  free  transition at x/c =  0.5923   70
 Side 2  free  transition at x/c =  0.3803   39

   4   rms: 0.6653E-02   max: 0.5779E-01   C at   70  1
       a =  7.000      CL =  1.5001
      Cm = -0.2281     CD =  0.01936   =>   CDf =  0.00628    CDp =  0.01308

 Side 1  free  transition at x/c =  0.5905   69
 Side 2  free  transition at x/c =  0.3805   39

   5   rms: 0.4578E-02   max: 0.2792E-01   D at   70  1
       a =  7.000      CL =  1.4970
      Cm = -0.2277     CD =  0.01952   =>   CDf =  0.00630    CDp =  0.01322

 Side 1  free  transition at x/c =  0.5909   69
 Side 2  free  transition at x/c =  0.3801   39

   6   rms: 0.2261E-03   max: 0.2490E-02   D at   86  1
       a =  7.000      CL =  1.4969
      Cm = -0.2277     CD =  0.01952   =>   CDf =  0.00630    CDp =  0.01322

 Side 1  free  transition at x/c =  0.5909   69
 Side 2  free  transition at x/c =  0.3801   39

   7   rms: 0.3940E-05   max: 0.2261E-04   D at   86  1
       a =  7.000      CL =  1.4969
      Cm = -0.2277     CD =  0.01952   =>   CDf =  0.00630    CDp =  0.01322

 Point added to stored polar  1
 Point written to save file  000097M0.04.log                                 
 Dump file unspecified or not available
 Calculating wake trajectory ...
 Calculating source influence matrix ...

 Solving BL system ...

 Side 1  free  transition at x/c =  0.5909   69
 Side 2  free  transition at x/c =  0.3801   39

   1   rms: 0.1788E+00   max: 0.8264E+00   D at   84  1   RLX: 0.837
       a =  8.000      CL =  1.4655
      Cm = -0.2084     CD =  0.02399   =>   CDf =  0.00609    CDp =  0.01790

 Side 1  free  transition at x/c =  0.5324   67
 Side 2  free  transition at x/c =  0.3943   38

   2   rms: 0.6956E-01   max: -.5909E+00   D at   68  1   RLX: 0.846
       a =  8.000      CL =  1.4610
      Cm = -0.2055     CD =  0.02618   =>   CDf =  0.00637    CDp =  0.01982

 Side 1  free  transition at x/c =  0.4945   65
 Side 2  free  transition at x/c =  0.3961   38

   3   rms: 0.3092E-01   max: 0.4171E+00   C at   65  1
       a =  8.000      CL =  1.4587
      Cm = -0.2052     CD =  0.02636   =>   CDf =  0.00645    CDp =  0.01990

 Side 1  free  transition at x/c =  0.4187   61
 Side 2  free  transition at x/c =  0.3960   38

   4   rms: 0.5354E-01   max: -.1127E+01   C at   61  1   RLX: 0.444
       a =  8.000      CL =  1.4590
      Cm = -0.2067     CD =  0.02648   =>   CDf =  0.00706    CDp =  0.01942

 Side 1  free  transition at x/c =  0.4300   62
 Side 2  free  transition at x/c =  0.3958   38

   5   rms: 0.3070E-01   max: -.6324E+00   C at   62  1   RLX: 0.791
       a =  8.000      CL =  1.4555
      Cm = -0.2051     CD =  0.02655   =>   CDf =  0.00698    CDp =  0.01958

 Side 1  free  transition at x/c =  0.4443   62
 Side 2  free  transition at x/c =  0.3956   38

   6   rms: 0.1980E-01   max: -.4136E+00   C at   62  1
       a =  8.000      CL =  1.4537
      Cm = -0.2045     CD =  0.02664   =>   CDf =  0.00684    CDp =  0.01980

 Side 1  free  transition at x/c =  0.4598   63
 Side 2  free  transition at x/c =  0.3954   38

   7   rms: 0.3335E-02   max: 0.6488E-01   C at   63  1
       a =  8.000      CL =  1.4538
      Cm = -0.2045     CD =  0.02665   =>   CDf =  0.00671    CDp =  0.01994

 Side 1  free  transition at x/c =  0.4568   63
 Side 2  free  transition at x/c =  0.3954   38

   8   rms: 0.8355E-03   max: -.1736E-01   C at   63  1
       a =  8.000      CL =  1.4538
      Cm = -0.2045     CD =  0.02665   =>   CDf =  0.00673    CDp =  0.01992

 Side 1  free  transition at x/c =  0.4575   63
 Side 2  free  transition at x/c =  0.3954   38

   9   rms: 0.6335E-05   max: -.1216E-03   C at   63  1
       a =  8.000      CL =  1.4538
      Cm = -0.2045     CD =  0.02665   =>   CDf =  0.00673    CDp =  0.01992

 Point added to stored polar  1
 Point written to save file  000097M0.04.log                                 
 Dump file unspecified or not available
 Calculating wake trajectory ...
 Calculating source influence matrix ...

 Solving BL system ...

 Side 1  free  transition at x/c =  0.4575   63
 Side 2  free  transition at x/c =  0.3954   38

   1   rms: 0.3848E+00   max: 0.6465E+01   C at   63  1   RLX: 0.232
       a =  9.000      CL =  1.4254
      Cm = -0.1975     CD =  0.03008   =>   CDf =  0.00673    CDp =  0.02334

 MRCHDU: Convergence failed at  81  side 1    Res =  0.1239E+01
 Side 1  free  transition at x/c =  0.1101   42
 Side 2  free  transition at x/c =  0.3970   38

   2   rms: 0.1805E+00   max: 0.1189E+01   D at   82  1
       a =  9.000      CL =  1.3171
      Cm = -0.1777     CD =  0.04495   =>   CDf =  0.00925    CDp =  0.03570

 Side 1  free  transition at x/c =  0.1094   42
 Side 2  free  transition at x/c =  0.3996   38

   3   rms: 0.1140E+00   max: -.2435E+01   C at   42  1   RLX: 0.205
       a =  9.000      CL =  1.3225
      Cm = -0.1819     CD =  0.04511   =>   CDf =  0.00879    CDp =  0.03632

 Side 1  free  transition at x/c =  0.1228   43
 Side 2  free  transition at x/c =  0.3994   38

   4   rms: 0.1131E+00   max: -.2473E+01   C at   43  1   RLX: 0.202
       a =  9.000      CL =  1.3190
      Cm = -0.1806     CD =  0.04542   =>   CDf =  0.00866    CDp =  0.03676

 Side 1  free  transition at x/c =  0.1289   43
 Side 2  free  transition at x/c =  0.3993   38

   5   rms: 0.1184E+00   max: -.2493E+01   C at   43  1   RLX: 0.201
       a =  9.000      CL =  1.3168
      Cm = -0.1801     CD =  0.04567   =>   CDf =  0.00860    CDp =  0.03707

 Side 1  free  transition at x/c =  0.1588   46
 Side 2  free  transition at x/c =  0.3993   38

   6   rms: 0.3358E-01   max: -.6998E+00   C at   46  1   RLX: 0.714
       a =  9.000      CL =  1.3116
      Cm = -0.1777     CD =  0.04624   =>   CDf =  0.00837    CDp =  0.03787

 Side 1  free  transition at x/c =  0.1732   47
 Side 2  free  transition at x/c =  0.3993   38

   7   rms: 0.3731E-02   max: 0.3114E-01   D at   81  1
       a =  9.000      CL =  1.3105
      Cm = -0.1774     CD =  0.04634   =>   CDf =  0.00824    CDp =  0.03810

 Side 1  free  transition at x/c =  0.1739   47
 Side 2  free  transition at x/c =  0.3994   38

   8   rms: 0.3154E-03   max: -.6489E-02   C at   47  1
       a =  9.000      CL =  1.3105
      Cm = -0.1773     CD =  0.04631   =>   CDf =  0.00823    CDp =  0.03808

 Side 1  free  transition at x/c =  0.1740   47
 Side 2  free  transition at x/c =  0.3994   38

   9   rms: 0.1895E-04   max: -.4152E-03   C at   47  1
       a =  9.000      CL =  1.3105
      Cm = -0.1773     CD =  0.04631   =>   CDf =  0.00823    CDp =  0.03808

 Point added to stored polar  1
 Point written to save file  000097M0.04.log                                 
 Dump file unspecified or not available
 Calculating wake trajectory ...
 Calculating source influence matrix ...

 Solving BL system ...

 Side 1  free  transition at x/c =  0.1740   47
 Side 2  free  transition at x/c =  0.3994   38

   1   rms: 0.7104E+00   max: 0.1517E+02   C at   47  1   RLX: 0.099
       a = 10.000      CL =  1.2966
      Cm = -0.1752     CD =  0.04871   =>   CDf =  0.00824    CDp =  0.04047

 Side 1  free  transition at x/c =  0.1471   45
 Side 2  free  transition at x/c =  0.3996   38

   2   rms: 0.6814E+00   max: 0.1465E+02   C at   45  1   RLX: 0.102
       a = 10.000      CL =  1.2840
      Cm = -0.1729     CD =  0.05067   =>   CDf =  0.00836    CDp =  0.04231

 Side 1  free  transition at x/c =  0.1283   43
 Side 2  free  transition at x/c =  0.3999   38

   3   rms: 0.7333E+00   max: 0.1534E+02   C at   43  1   RLX: 0.098
       a = 10.000      CL =  1.2748
      Cm = -0.1708     CD =  0.05217   =>   CDf =  0.00844    CDp =  0.04373

 Side 1  free  transition at x/c =  0.1105   42
 Side 2  free  transition at x/c =  0.4002   39

   4   rms: 0.4589E+00   max: 0.9864E+01   C at   42  1   RLX: 0.152
       a = 10.000      CL =  1.2663
      Cm = -0.1691     CD =  0.05414   =>   CDf =  0.00855    CDp =  0.04560

 Side 1  free  transition at x/c =  0.0944   40
 Side 2  free  transition at x/c =  0.4017   39

   5   rms: 0.2969E+00   max: 0.6227E+01   C at   40  1   RLX: 0.241
       a = 10.000      CL =  1.2623
      Cm = -0.1673     CD =  0.05612   =>   CDf =  0.00862    CDp =  0.04751

 Side 1  free  transition at x/c =  0.0791   38
 Side 2  free  transition at x/c =  0.4044   39

   6   rms: 0.9521E-01   max: 0.1193E+01   C at   38  1
       a = 10.000      CL =  1.2810
      Cm = -0.1660     CD =  0.06034   =>   CDf =  0.00870    CDp =  0.05164

 Side 1  free  transition at x/c =  0.0592   36
 Side 2  free  transition at x/c =  0.4152   39

   7   rms: 0.3563E-01   max: -.4638E+00   D at   36  1
       a = 10.000      CL =  1.2767
      Cm = -0.1657     CD =  0.06019   =>   CDf =  0.00883    CDp =  0.05136

 Side 1  free  transition at x/c =  0.0618   36
 Side 2  free  transition at x/c =  0.4161   39

   8   rms: 0.3088E-02   max: 0.3373E-01   C at   36  1
       a = 10.000      CL =  1.2775
      Cm = -0.1657     CD =  0.06012   =>   CDf =  0.00870    CDp =  0.05142

 Side 1  free  transition at x/c =  0.0614   36
 Side 2  free  transition at x/c =  0.4160   39

   9   rms: 0.5679E-04   max: -.7945E-03   D at   37  1
       a = 10.000      CL =  1.2775
      Cm = -0.1657     CD =  0.06013   =>   CDf =  0.00871    CDp =  0.05142

 Point added to stored polar  1
 Point written to save file  000097M0.04.log                                 
 Dump file unspecified or not available
 Calculating wake trajectory ...
 Calculating source influence matrix ...

 Solving BL system ...

 Side 1  free  transition at x/c =  0.0614   36
 Side 2  free  transition at x/c =  0.4160   39

   1   rms: 0.1460E+00   max: 0.9498E+00   T at   36  1   RLX: 0.447
       a = 11.000      CL =  1.2875
      Cm = -0.1629     CD =  0.06467   =>   CDf =  0.00841    CDp =  0.05626

 Side 1  free  transition at x/c =  0.0541   36
 Side 2  free  transition at x/c =  0.4278   39

   2   rms: 0.7664E-01   max: 0.5256E+00   T at   36  1
       a = 11.000      CL =  1.3050
      Cm = -0.1600     CD =  0.06939   =>   CDf =  0.00867    CDp =  0.06072

 MRCHDU: Convergence failed at  36  side 1    Res =  0.2501E+01
 MRCHDU: Convergence failed at  37  side 1    Res =  0.1887E+01
 MRCHDU: Convergence failed at  38  side 1    Res =  0.2098E+01
 MRCHDU: Convergence failed at  39  side 1    Res =  0.1345E+01
 MRCHDU: Convergence failed at  40  side 1    Res =  0.1311E+01
 MRCHDU: Convergence failed at  41  side 1    Res =  0.1352E+01
 MRCHDU: Convergence failed at  42  side 1    Res =  0.1358E+01
 MRCHDU: Convergence failed at  43  side 1    Res =  0.1245E+01
 MRCHDU: Convergence failed at  44  side 1    Res =  0.1155E+01
 MRCHDU: Convergence failed at  45  side 1    Res =  0.1051E+01
 MRCHDU: Convergence failed at  46  side 1    Res =  0.1189E+01
 MRCHDU: Convergence failed at  47  side 1    Res =  0.3033E+01
 MRCHDU: Convergence failed at  48  side 1    Res =  0.3299E+01
 Side 1  free  transition at x/c =  0.0479   35
 Side 2  free  transition at x/c =  0.4393   39

   3   rms: 0.1516E+00   max: -.8432E+00   D at   48  1   RLX: 0.593
       a = 11.000      CL =  1.3356
      Cm = -0.1566     CD =  0.06784   =>   CDf =  0.00695    CDp =  0.06089

 Side 1  free  transition at x/c =  0.0467   34
 Side 2  free  transition at x/c =  0.4437   40

   4   rms: 0.4857E-01   max: -.3060E+00   D at   35  1
       a = 11.000      CL =  1.2824
      Cm = -0.1585     CD =  0.07100   =>   CDf =  0.00876    CDp =  0.06224

 MRCHDU: Convergence failed at  35  side 1    Res =  0.7280E+01
 MRCHDU: Convergence failed at  36  side 1    Res =  0.6183E+01
 MRCHDU: Convergence failed at  37  side 1    Res =  0.6758E+01
 MRCHDU: Convergence failed at  38  side 1    Res =  0.5603E+02
 MRCHDU: Convergence failed at  39  side 1    Res =  0.2906E+02
 MRCHDU: Convergence failed at  40  side 1    Res =  0.1614E+02
 MRCHDU: Convergence failed at  41  side 1    Res =  0.1344E+02
 MRCHDU: Convergence failed at  42  side 1    Res =  0.1072E+02
 MRCHDU: Convergence failed at  43  side 1    Res =  0.1063E+02
 MRCHDU: Convergence failed at  44  side 1    Res =  0.1183E+02
 MRCHDU: Convergence failed at  45  side 1    Res =  0.1344E+02
 MRCHDU: Convergence failed at  46  side 1    Res =  0.1663E+02
 MRCHDU: Convergence failed at  47  side 1    Res =  0.2471E+02
 MRCHDU: Convergence failed at  48  side 1    Res =  0.7715E+02
 MRCHDU: Convergence failed at  49  side 1    Res =  0.2452E+03
 MRCHDU: Convergence failed at  50  side 1    Res =  0.2496E+02
 MRCHDU: Convergence failed at  51  side 1    Res =  0.1327E+02
 MRCHDU: Convergence failed at  52  side 1    Res =  0.9176E+01
 MRCHDU: Convergence failed at  53  side 1    Res =  0.7112E+01
 MRCHDU: Convergence failed at  54  side 1    Res =  0.6100E+01
 MRCHDU: Convergence failed at  55  side 1    Res =  0.5502E+01
 MRCHDU: Convergence failed at  56  side 1    Res =  0.5198E+01
 MRCHDU: Convergence failed at  57  side 1    Res =  0.5095E+01
 MRCHDU: Convergence failed at  58  side 1    Res =  0.5188E+01
 MRCHDU: Convergence failed at  59  side 1    Res =  0.5486E+01
 MRCHDU: Convergence failed at  60  side 1    Res =  0.6016E+01
 MRCHDU: Convergence failed at  61  side 1    Res =  0.6492E+01
 MRCHDU: Convergence failed at  62  side 1    Res =  0.6979E+01
 MRCHDU: Convergence failed at  63  side 1    Res =  0.7347E+01
 MRCHDU: Convergence failed at  64  side 1    Res =  0.7472E+01
 MRCHDU: Convergence failed at  65  side 1    Res =  0.8586E+01
 MRCHDU: Convergence failed at  66  side 1    Res =  0.1191E+02
 MRCHDU: Convergence failed at  67  side 1    Res =  0.2045E+02
 MRCHDU: Convergence failed at  68  side 1    Res =  0.8963E+02
 MRCHDU: Convergence failed at  69  side 1    Res =  0.3707E+02
 MRCHDU: Convergence failed at  70  side 1    Res =  0.1516E+02
 MRCHDU: Convergence failed at  71  side 1    Res =  0.2492E+02
 MRCHDU: Convergence failed at  72  side 1    Res =  0.7874E+02
 MRCHDU: Convergence failed at  73  side 1    Res =  0.1564E+02
 MRCHDU: Convergence failed at  74  side 1    Res =  0.9523E+02
 MRCHDU: Convergence failed at  75  side 1    Res =  0.2327E+02
 MRCHDU: Convergence failed at  76  side 1    Res =  0.2054E+02
 MRCHDU: Convergence failed at  77  side 1    Res =  0.6799E+02
 MRCHDU: Convergence failed at  78  side 1    Res =  0.5208E+02
 MRCHDU: Convergence failed at  79  side 1    Res =  0.1898E+02
 MRCHDU: Convergence failed at  80  side 1    Res =  0.1665E+02
 MRCHDU: Convergence failed at  81  side 1    Res =  0.2047E+02
 MRCHDU: Convergence failed at  82  side 1    Res =  0.3519E+02
 MRCHDU: Convergence failed at  83  side 1    Res =  0.9542E+02
 MRCHDU: Convergence failed at  84  side 1    Res =  0.2289E+03
 MRCHDU: Convergence failed at  85  side 1    Res =  0.4062E+02
 MRCHDU: Convergence failed at  86  side 1    Res =  0.2684E+02
 MRCHDU: Convergence failed at  87  side 1    Res =  0.1606E+02
 MRCHDU: Convergence failed at  88  side 1    Res =  0.1390E+02
 MRCHDU: Convergence failed at  89  side 1    Res =  0.1199E+02
 MRCHDU: Convergence failed at  90  side 1    Res =  0.1411E+02
 MRCHDU: Convergence failed at  91  side 1    Res =  0.1230E+02
 MRCHDU: Convergence failed at  92  side 1    Res =  0.1170E+02
 MRCHDU: Convergence failed at  93  side 1    Res =  0.1322E+02
 MRCHDU: Convergence failed at  94  side 1    Res =  0.1348E+02
 MRCHDU: Convergence failed at  81  side 2    Res =  0.3358E+01
 MRCHDU: Convergence failed at  82  side 2    Res =  0.2293E+01
 Side 1  free  transition at x/c =  0.0497   35
 Side 2  free  transition at x/c =  0.4400   39

   5   rms: 0.1570E+01   max: 0.8064E+01   D at   94  1   RLX: 0.186
       a = 11.000      CL =  2.2543
      Cm = -0.5122     CD =  0.01594   =>   CDf =  0.00254    CDp =  0.01341

 Side 1  free  transition at x/c =  0.0420   35
 Side 2  free  transition at x/c =  0.4584   39

   6   rms: 0.4060E+00   max: 0.1062E+01   D at   81  2   RLX: 0.332
       a = 11.000      CL =  1.6714
      Cm = -0.3112     CD =  0.07117   =>   CDf =  0.00705    CDp =  0.06413

 Side 1  free  transition at x/c =  0.0448   34
 Side 2  free  transition at x/c =  0.4458   40

   7   rms: 0.3427E+00   max: -.1478E+01   D at   45  1   RLX: 0.338
       a = 11.000      CL =  1.4988
      Cm = -0.2538     CD =  0.07450   =>   CDf =  0.00670    CDp =  0.06780

 Side 1  free  transition at x/c =  0.0482   35
 Side 2  free  transition at x/c =  0.4409   39

   8   rms: 0.5068E+00   max: -.2858E+01   D at   54  1   RLX: 0.175
       a = 11.000      CL =  1.4224
      Cm = -0.2226     CD =  0.07470   =>   CDf =  0.00697    CDp =  0.06772

 MRCHDU: Convergence failed at  43  side 1    Res =  0.2830E+00
 Side 1  free  transition at x/c =  0.0493   35
 Side 2  free  transition at x/c =  0.4396   39

   9   rms: 0.4946E+00   max: -.3321E+01   D at   61  1   RLX: 0.151
       a = 11.000      CL =  1.4006
      Cm = -0.2135     CD =  0.07766   =>   CDf =  0.00778    CDp =  0.06988

 Side 1  free  transition at x/c =  0.0508   35
 Side 2  free  transition at x/c =  0.4364   39

  10   rms: 0.2375E+00   max: -.1477E+01   D at   45  1   RLX: 0.338
       a = 11.000      CL =  1.3661
      Cm = -0.1981     CD =  0.07674   =>   CDf =  0.00802    CDp =  0.06872

 Side 1  free  transition at x/c =  0.0507   35
 Side 2  free  transition at x/c =  0.4374   39

  11   rms: 0.1925E+00   max: -.1047E+01   D at   46  1   RLX: 0.477
       a = 11.000      CL =  1.3426
      Cm = -0.1782     CD =  0.07164   =>   CDf =  0.00815    CDp =  0.06349

 Side 1  free  transition at x/c =  0.0486   35
 Side 2  free  transition at x/c =  0.4417   39

  12   rms: 0.1417E+00   max: -.7371E+00   D at   69  1   RLX: 0.678
       a = 11.000      CL =  1.3416
      Cm = -0.1629     CD =  0.06445   =>   CDf =  0.00842    CDp =  0.05604

 Side 1  free  transition at x/c =  0.0464   34
 Side 2  free  transition at x/c =  0.4494   40

  13   rms: 0.5389E-01   max: -.3535E+00   D at   69  1
       a = 11.000      CL =  1.3240
      Cm = -0.1596     CD =  0.06534   =>   CDf =  0.00872    CDp =  0.05662

 Side 1  free  transition at x/c =  0.0467   34
 Side 2  free  transition at x/c =  0.4459   40

  14   rms: 0.4165E-01   max: 0.2759E+00   D at   74  1
       a = 11.000      CL =  1.2932
      Cm = -0.1593     CD =  0.07065   =>   CDf =  0.00873    CDp =  0.06192

 Side 1  free  transition at x/c =  0.0488   35
 Side 2  free  transition at x/c =  0.4413   39

  15   rms: 0.1422E-01   max: 0.2449E+00   D at   35  1
       a = 11.000      CL =  1.2971
      Cm = -0.1594     CD =  0.06976   =>   CDf =  0.00856    CDp =  0.06120

 Side 1  free  transition at x/c =  0.0483   35
 Side 2  free  transition at x/c =  0.4414   39

  16   rms: 0.1388E-02   max: 0.1820E-01   D at   35  1
       a = 11.000      CL =  1.2969
      Cm = -0.1594     CD =  0.06973   =>   CDf =  0.00858    CDp =  0.06115

 Side 1  free  transition at x/c =  0.0482   35
 Side 2  free  transition at x/c =  0.4414   39

  17   rms: 0.8234E-04   max: 0.3791E-03   D at   82  2
       a = 11.000      CL =  1.2968
      Cm = -0.1594     CD =  0.06973   =>   CDf =  0.00858    CDp =  0.06115

 Point added to stored polar  1
 Point written to save file  000097M0.04.log                                 
 Dump file unspecified or not available
 Calculating wake trajectory ...
 Calculating source influence matrix ...

 Solving BL system ...

 Side 1  free  transition at x/c =  0.0482   35
 Side 2  free  transition at x/c =  0.4414   39

   1   rms: 0.1346E+00   max: 0.9698E+00   T at   35  1   RLX: 0.411
       a = 12.000      CL =  1.3062
      Cm = -0.1571     CD =  0.07406   =>   CDf =  0.00860    CDp =  0.06547

 Side 1  free  transition at x/c =  0.0452   34
 Side 2  free  transition at x/c =  0.4585   40

   2   rms: 0.7691E-01   max: 0.5600E+00   D at   40  2
       a = 12.000      CL =  1.3288
      Cm = -0.1544     CD =  0.07891   =>   CDf =  0.00810    CDp =  0.07081

 Side 1  free  transition at x/c =  0.0406   34
 Side 2  free  transition at x/c =  0.4711   40

   3   rms: 0.2652E-01   max: -.2163E+00   D at   34  1
       a = 12.000      CL =  1.3152
      Cm = -0.1538     CD =  0.07973   =>   CDf =  0.00846    CDp =  0.07127

 Side 1  free  transition at x/c =  0.0413   34
 Side 2  free  transition at x/c =  0.4710   40

   4   rms: 0.4473E-02   max: -.2174E-01   D at   73  1
       a = 12.000      CL =  1.3185
      Cm = -0.1538     CD =  0.07914   =>   CDf =  0.00836    CDp =  0.07079

 Side 1  free  transition at x/c =  0.0412   34
 Side 2  free  transition at x/c =  0.4715   40

   5   rms: 0.2845E-03   max: -.1779E-02   D at   81  2
       a = 12.000      CL =  1.3187
      Cm = -0.1538     CD =  0.07920   =>   CDf =  0.00837    CDp =  0.07084

 Side 1  free  transition at x/c =  0.0412   34
 Side 2  free  transition at x/c =  0.4715   40

   6   rms: 0.6807E-05   max: -.5358E-04   D at   81  2
       a = 12.000      CL =  1.3187
      Cm = -0.1538     CD =  0.07921   =>   CDf =  0.00837    CDp =  0.07084

 Point added to stored polar  1
 Point written to save file  000097M0.04.log                                 
 Dump file unspecified or not available
 Calculating wake trajectory ...
 Calculating source influence matrix ...

 Solving BL system ...

 Side 1  free  transition at x/c =  0.0412   34
 Side 2  free  transition at x/c =  0.4715   40

   1   rms: 0.1240E+00   max: 0.7154E+00   T at   34  1   RLX: 0.385
       a = 13.000      CL =  1.3335
      Cm = -0.1521     CD =  0.08255   =>   CDf =  0.00838    CDp =  0.07417

 Side 1  free  transition at x/c =  0.0388   34
 Side 2  free  transition at x/c =  0.4833   41

   2   rms: 0.9525E-01   max: -.7041E+00   T at   41  2   RLX: 0.710
       a = 13.000      CL =  1.3507
      Cm = -0.1507     CD =  0.08581   =>   CDf =  0.00801    CDp =  0.07781

 Side 1  free  transition at x/c =  0.0370   34
 Side 2  free  transition at x/c =  0.5017   40

   3   rms: 0.3463E-01   max: -.3202E+00   D at   40  2
       a = 13.000      CL =  1.3510
      Cm = -0.1488     CD =  0.08743   =>   CDf =  0.00838    CDp =  0.07905

 Side 1  free  transition at x/c =  0.0363   34
 Side 2  free  transition at x/c =  0.5170   41

   4   rms: 0.2342E-01   max: 0.3689E+00   C at   41  2
       a = 13.000      CL =  1.3512
      Cm = -0.1489     CD =  0.08718   =>   CDf =  0.00813    CDp =  0.07906

 Side 1  free  transition at x/c =  0.0363   34
 Side 2  free  transition at x/c =  0.5133   41

   5   rms: 0.3474E-02   max: -.5138E-01   D at   43  2
       a = 13.000      CL =  1.3513
      Cm = -0.1489     CD =  0.08719   =>   CDf =  0.00816    CDp =  0.07903

 Side 1  free  transition at x/c =  0.0363   34
 Side 2  free  transition at x/c =  0.5117   41

   6   rms: 0.1295E-03   max: -.2476E-02   D at   43  2
       a = 13.000      CL =  1.3513
      Cm = -0.1489     CD =  0.08719   =>   CDf =  0.00816    CDp =  0.07903

 Side 1  free  transition at x/c =  0.0363   34
 Side 2  free  transition at x/c =  0.5117   41

   7   rms: 0.1749E-05   max: -.7271E-05   D at   83  2
       a = 13.000      CL =  1.3513
      Cm = -0.1489     CD =  0.08719   =>   CDf =  0.00816    CDp =  0.07903

 Point added to stored polar  1
 Point written to save file  000097M0.04.log                                 
 Dump file unspecified or not available
 Calculating wake trajectory ...
 Calculating source influence matrix ...

 Solving BL system ...

 Side 1  free  transition at x/c =  0.0363   34
 Side 2  free  transition at x/c =  0.5117   41

   1   rms: 0.1284E+00   max: 0.7143E+00   T at   34  1   RLX: 0.363
       a = 14.000      CL =  1.3680
      Cm = -0.1475     CD =  0.08997   =>   CDf =  0.00818    CDp =  0.08178

 Side 1  free  transition at x/c =  0.0343   34
 Side 2  free  transition at x/c =  0.5279   42

   2   rms: 0.9082E-01   max: -.6081E+00   T at   42  2   RLX: 0.822
       a = 14.000      CL =  1.3932
      Cm = -0.1457     CD =  0.09330   =>   CDf =  0.00777    CDp =  0.08553

 Side 1  free  transition at x/c =  0.0326   34
 Side 2  free  transition at x/c =  0.5578   42

   3   rms: 0.2665E-01   max: -.2662E+00   C at   42  2
       a = 14.000      CL =  1.3965
      Cm = -0.1447     CD =  0.09363   =>   CDf =  0.00807    CDp =  0.08556

 Side 1  free  transition at x/c =  0.0321   34
 Side 2  free  transition at x/c =  0.5784   43

   4   rms: 0.1733E-01   max: -.2639E+00   C at   43  2
       a = 14.000      CL =  1.3969
      Cm = -0.1447     CD =  0.09349   =>   CDf =  0.00798    CDp =  0.08552

 Side 1  free  transition at x/c =  0.0321   34
 Side 2  free  transition at x/c =  0.5828   44

   5   rms: 0.6111E-02   max: -.9779E-01   D at   43  2
       a = 14.000      CL =  1.3968
      Cm = -0.1447     CD =  0.09352   =>   CDf =  0.00794    CDp =  0.08558

 Side 1  free  transition at x/c =  0.0321   34
 Side 2  free  transition at x/c =  0.5821   44

   6   rms: 0.8446E-03   max: 0.1461E-01   C at   44  2
       a = 14.000      CL =  1.3968
      Cm = -0.1447     CD =  0.09352   =>   CDf =  0.00792    CDp =  0.08560

 Side 1  free  transition at x/c =  0.0321   34
 Side 2  free  transition at x/c =  0.5817   44

   7   rms: 0.4476E-05   max: -.5971E-04   D at   46  2
       a = 14.000      CL =  1.3968
      Cm = -0.1447     CD =  0.09352   =>   CDf =  0.00793    CDp =  0.08559

 Point added to stored polar  1
 Point written to save file  000097M0.04.log                                 
 Dump file unspecified or not available
 Calculating wake trajectory ...
 Calculating source influence matrix ...

 Solving BL system ...

 Side 1  free  transition at x/c =  0.0321   34
 Side 2  free  transition at x/c =  0.5817   44

   1   rms: 0.1883E+00   max: -.2379E+01   C at   44  2   RLX: 0.210
       a = 15.000      CL =  1.4082
      Cm = -0.1439     CD =  0.09465   =>   CDf =  0.00795    CDp =  0.08671

 Side 1  free  transition at x/c =  0.0313   34
 Side 2  free  transition at x/c =  0.6040   45

   2   rms: 0.1793E+00   max: -.2682E+01   C at   45  2   RLX: 0.186
       a = 15.000      CL =  1.4174
      Cm = -0.1435     CD =  0.09510   =>   CDf =  0.00788    CDp =  0.08723

 Side 1  free  transition at x/c =  0.0308   34
 Side 2  free  transition at x/c =  0.6226   46

   3   rms: 0.2062E+00   max: -.3422E+01   C at   46  2   RLX: 0.146
       a = 15.000      CL =  1.4235
      Cm = -0.1433     CD =  0.09539   =>   CDf =  0.00784    CDp =  0.08755

 Side 1  free  transition at x/c =  0.0305   34
 Side 2  free  transition at x/c =  0.6381   46

   4   rms: 0.9379E-01   max: -.8756E+00   C at   46  2   RLX: 0.571
       a = 15.000      CL =  1.4412
      Cm = -0.1419     CD =  0.09709   =>   CDf =  0.00781    CDp =  0.08928

 Side 1  free  transition at x/c =  0.0296   34
 Side 2 forced transition at x/c =  1.0001   65

   5   rms: 0.4141E-01   max: 0.3912E+00   D at   46  2
       a = 15.000      CL =  1.4499
      Cm = -0.1395     CD =  0.09727   =>   CDf =  0.00710    CDp =  0.09016

 Side 1  free  transition at x/c =  0.0292   35
 Side 2 forced transition at x/c =  1.0001   64

   6   rms: 0.6082E-02   max: -.3000E-01   D at   75  1
       a = 15.000      CL =  1.4523
      Cm = -0.1392     CD =  0.09647   =>   CDf =  0.00756    CDp =  0.08891

 Side 1  free  transition at x/c =  0.0291   35
 Side 2 forced transition at x/c =  1.0001   64

   7   rms: 0.1216E-02   max: 0.5603E-02   T at   35  1
       a = 15.000      CL =  1.4531
      Cm = -0.1392     CD =  0.09649   =>   CDf =  0.00758    CDp =  0.08891

 Side 1  free  transition at x/c =  0.0291   35
 Side 2 forced transition at x/c =  1.0001   64

   8   rms: 0.4927E-04   max: -.3936E-03   D at   80  2
       a = 15.000      CL =  1.4531
      Cm = -0.1392     CD =  0.09652   =>   CDf =  0.00759    CDp =  0.08893

 Point added to stored polar  1
 Point written to save file  000097M0.04.log                                 
 Dump file unspecified or not available

.OPERva   c>  
 XFOIL   c>  
0.1
resp: 
 ===================================================
  XFOIL Version 6.97
  Copyright (C) 2000   Mark Drela, Harold Youngren

  This software comes with ABSOLUTELY NO WARRANTY,
    subject to the GNU General Public License.

  Caveat computor
 ===================================================

 File  xfoil.def  not found

   QUIT    Exit program

  .OPER    Direct operating point(s)
  .MDES    Complex mapping design routine
  .QDES    Surface speed design routine
  .GDES    Geometry design routine

   SAVE f  Write airfoil to labeled coordinate file
   PSAV f  Write airfoil to plain coordinate file
   ISAV f  Write airfoil to ISES coordinate file
   MSAV f  Write airfoil to MSES coordinate file
   REVE    Reverse written-airfoil node ordering
   DELI i  Change written-airfoil file delimiters

   LOAD f  Read buffer airfoil from coordinate file
   NACA i  Set NACA 4,5-digit airfoil and buffer airfoil
   INTE    Set buffer airfoil by interpolating two airfoils
   NORM    Buffer airfoil normalization toggle
   HALF    Halve the number of points in buffer airfoil
   XYCM rr Change CM reference location, currently  0.25000 0.00000

   BEND    Display structural properties of current airfoil

   PCOP    Set current-airfoil panel nodes directly from buffer airfoil points
   PANE    Set current-airfoil panel nodes ( 160 ) based on curvature
  .PPAR    Show/change paneling

  .PLOP    Plotting options

   WDEF f  Write  current-settings file
   RDEF f  Reread current-settings file
   NAME s  Specify new airfoil name
   NINC    Increment name version number

   Z       Zoom    | (available in all menus)
   U       Unzoom  | 

 XFOIL   c>   ...............................................

  G raphics-enable flag:        T
  S ize of plot object          10.00"
  A spect ratio of plot object   0.5500
  P age dimensions              11.00 x  8.50"
  M argins from page edges       0.00",  0.00"
  F ont size (relative)          0.0150
  W indow/screen size fraction   0.8000
  B lowup input method:        Cursor    
  O rientation of plot:        Landscape 
  C olor PostScript output?     F

      Option, Value   (or <Return>)    c>   ...............................................

[...]
 Side 2  free  transition at x/c =  0.3967   38

   8   rms: 0.5556E-01   max: -.6737E+00   D at   50  2   RLX: 0.742
       a =  8.000      CL =  1.4481
      Cm = -0.2035     CD =  0.02752   =>   CDf =  0.00674    CDp =  0.02078

 Side 1  free  transition at x/c =  0.4501   63
 Side 2  free  transition at x/c =  0.3943   38

   9   rms: 0.2039E-01   max: -.2849E+00   D at   50  2
       a =  8.000      CL =  1.4481
      Cm = -0.2036     CD =  0.02753   =>   CDf =  0.00675    CDp =  0.02079

 Side 1  free  transition at x/c =  0.4501   63
 Side 2  free  transition at x/c =  0.3931   38

  10   rms: 0.1285E-02   max: -.2368E-01   D at   50  2
       a =  8.000      CL =  1.4481
      Cm = -0.2036     CD =  0.02753   =>   CDf =  0.00675    CDp =  0.02078

 Side 1  free  transition at x/c =  0.4501   63
 Side 2  free  transition at x/c =  0.3931   38

  11   rms: 0.9152E-05   max: -.1579E-03   D at   50  2
       a =  8.000      CL =  1.4481
      Cm = -0.2036     CD =  0.02753   =>   CDf =  0.00675    CDp =  0.02078

 Point added to stored polar  1
 Point written to save file  000097M0.1.log                                  
 Dump file unspecified or not available
 Calculating wake trajectory ...
 Calculating source influence matrix ...

 Solving BL system ...

 Side 1  free  transition at x/c =  0.4501   63
 Side 2  free  transition at x/c =  0.3931   38

   1   rms: 0.3464E+00   max: 0.5165E+01   C at   63  1   RLX: 0.290
       a =  9.000      CL =  1.4095
      Cm = -0.1946     CD =  0.03216   =>   CDf =  0.00675    CDp =  0.02540

 MRCHDU: Convergence failed at  80  side 1    Res =  0.6196E+01
 Side 1  free  transition at x/c =  0.1137   42
 Side 2  free  transition at x/c =  0.3946   38

   2   rms: 0.1645E+00   max: 0.1085E+01   D at   80  1
       a =  9.000      CL =  1.3104
      Cm = -0.1771     CD =  0.04656   =>   CDf =  0.00913    CDp =  0.03743

 Side 1  free  transition at x/c =  0.1079   42
 Side 2  free  transition at x/c =  0.3975   38

   3   rms: 0.9992E-01   max: -.2103E+01   C at   42  1   RLX: 0.238
       a =  9.000      CL =  1.3148
      Cm = -0.1809     CD =  0.04639   =>   CDf =  0.00873    CDp =  0.03766

 Side 1  free  transition at x/c =  0.1221   43
 Side 2  free  transition at x/c =  0.3972   38

   4   rms: 0.9426E-01   max: -.2058E+01   C at   43  1   RLX: 0.243
       a =  9.000      CL =  1.3113
      Cm = -0.1796     CD =  0.04672   =>   CDf =  0.00859    CDp =  0.03814

 Side 1  free  transition at x/c =  0.1255   43
 Side 2  free  transition at x/c =  0.3971   38

   5   rms: 0.9356E-01   max: -.2026E+01   C at   43  1   RLX: 0.247
       a =  9.000      CL =  1.3091
      Cm = -0.1793     CD =  0.04703   =>   CDf =  0.00855    CDp =  0.03848

 Side 1  free  transition at x/c =  0.1424   44
 Side 2  free  transition at x/c =  0.3971   38

   6   rms: 0.6427E-01   max: -.1324E+01   C at   44  1   RLX: 0.378
       a =  9.000      CL =  1.3065
      Cm = -0.1779     CD =  0.04726   =>   CDf =  0.00841    CDp =  0.03886

 Side 1  free  transition at x/c =  0.1525   45
 Side 2  free  transition at x/c =  0.3971   38

   7   rms: 0.3130E-01   max: -.6664E+00   C at   45  1   RLX: 0.750
       a =  9.000      CL =  1.3045
      Cm = -0.1771     CD =  0.04756   =>   CDf =  0.00833    CDp =  0.03923

 Side 1  free  transition at x/c =  0.1631   46
 Side 2  free  transition at x/c =  0.3971   38

   8   rms: 0.3568E-02   max: -.7229E-01   C at   46  1
       a =  9.000      CL =  1.3040
      Cm = -0.1768     CD =  0.04761   =>   CDf =  0.00824    CDp =  0.03937

 Side 1  free  transition at x/c =  0.1646   46
 Side 2  free  transition at x/c =  0.3972   38

   9   rms: 0.1488E-03   max: -.3155E-02   C at   46  1
       a =  9.000      CL =  1.3040
      Cm = -0.1768     CD =  0.04760   =>   CDf =  0.00823    CDp =  0.03937

 Side 1  free  transition at x/c =  0.1647   46
 Side 2  free  transition at x/c =  0.3972   38

  10   rms: 0.2166E-04   max: -.4724E-03   C at   46  1
       a =  9.000      CL =  1.3040
      Cm = -0.1768     CD =  0.04760   =>   CDf =  0.00823    CDp =  0.03937

 Point added to stored polar  1
 Point written to save file  000097M0.1.log                                  
 Dump file unspecified or not available
 Calculating wake trajectory ...
 Calculating source influence matrix ...

 Solving BL system ...

 Side 1  free  transition at x/c =  0.1647   46
 Side 2  free  transition at x/c =  0.3972   38

   1   rms: 0.8352E+00   max: 0.1762E+02   C at   46  1   RLX: 0.085
       a = 10.000      CL =  1.2920
      Cm = -0.1751     CD =  0.04968   =>   CDf =  0.00823    CDp =  0.04144

 Side 1  free  transition at x/c =  0.1405   44
 Side 2  free  transition at x/c =  0.3975   38

   2   rms: 0.8716E+00   max: 0.1820E+02   C at   44  1   RLX: 0.082
       a = 10.000      CL =  1.2821
      Cm = -0.1734     CD =  0.05125   =>   CDf =  0.00835    CDp =  0.04290

 Side 1  free  transition at x/c =  0.1271   43
 Side 2  free  transition at x/c =  0.3978   38

   3   rms: 0.7310E+00   max: 0.1540E+02   C at   43  1   RLX: 0.097
       a = 10.000      CL =  1.2728
      Cm = -0.1712     CD =  0.05282   =>   CDf =  0.00840    CDp =  0.04442

 Side 1  free  transition at x/c =  0.1086   42
 Side 2  free  transition at x/c =  0.3983   38

   4   rms: 0.4183E+00   max: 0.8894E+01   C at   42  1   RLX: 0.169
       a = 10.000      CL =  1.2629
      Cm = -0.1692     CD =  0.05514   =>   CDf =  0.00851    CDp =  0.04664

 Side 1  free  transition at x/c =  0.0926   40
 Side 2  free  transition at x/c =  0.3995   38

   5   rms: 0.2691E+00   max: 0.5556E+01   C at   40  1   RLX: 0.270
       a = 10.000      CL =  1.2576
      Cm = -0.1670     CD =  0.05752   =>   CDf =  0.00859    CDp =  0.04893

 Side 1  free  transition at x/c =  0.0779   38
 Side 2  free  transition at x/c =  0.4022   39

   6   rms: 0.9747E-01   max: 0.1173E+01   C at   38  1
       a = 10.000      CL =  1.2772
      Cm = -0.1659     CD =  0.06152   =>   CDf =  0.00868    CDp =  0.05284

 Side 1  free  transition at x/c =  0.0589   36
 Side 2  free  transition at x/c =  0.4152   39

   7   rms: 0.3441E-01   max: -.4799E+00   D at   36  1
       a = 10.000      CL =  1.2731
      Cm = -0.1656     CD =  0.06139   =>   CDf =  0.00878    CDp =  0.05261

 Side 1  free  transition at x/c =  0.0613   36
 Side 2  free  transition at x/c =  0.4135   39

   8   rms: 0.3548E-02   max: 0.3445E-01   C at   36  1
       a = 10.000      CL =  1.2744
      Cm = -0.1656     CD =  0.06123   =>   CDf =  0.00865    CDp =  0.05258

 Side 1  free  transition at x/c =  0.0609   36
 Side 2  free  transition at x/c =  0.4137   39

   9   rms: 0.8075E-04   max: -.1083E-02   D at   37  1
       a = 10.000      CL =  1.2745
      Cm = -0.1656     CD =  0.06124   =>   CDf =  0.00866    CDp =  0.05258

 Point added to stored polar  1
 Point written to save file  000097M0.1.log                                  
 Dump file unspecified or not available
 Calculating wake trajectory ...
 Calculating source influence matrix ...

 Solving BL system ...

 Side 1  free  transition at x/c =  0.0609   36
 Side 2  free  transition at x/c =  0.4137   39

   1   rms: 0.1471E+00   max: 0.9699E+00   T at   36  1   RLX: 0.438
       a = 11.000      CL =  1.2839
      Cm = -0.1628     CD =  0.06575   =>   CDf =  0.00836    CDp =  0.05739

 Side 1  free  transition at x/c =  0.0541   36
 Side 2  free  transition at x/c =  0.4239   39

   2   rms: 0.8345E-01   max: 0.5445E+00   T at   36  1
       a = 11.000      CL =  1.3014
      Cm = -0.1600     CD =  0.07086   =>   CDf =  0.00865    CDp =  0.06221

 MRCHDU: Convergence failed at  36  side 1    Res =  0.2848E+01
 MRCHDU: Convergence failed at  37  side 1    Res =  0.2090E+01
 MRCHDU: Convergence failed at  38  side 1    Res =  0.2427E+01
 MRCHDU: Convergence failed at  39  side 1    Res =  0.1402E+01
 MRCHDU: Convergence failed at  40  side 1    Res =  0.1362E+01
 MRCHDU: Convergence failed at  41  side 1    Res =  0.1407E+01
 MRCHDU: Convergence failed at  42  side 1    Res =  0.1418E+01
 MRCHDU: Convergence failed at  43  side 1    Res =  0.1305E+01
 MRCHDU: Convergence failed at  44  side 1    Res =  0.1213E+01
 MRCHDU: Convergence failed at  45  side 1    Res =  0.1103E+01
 MRCHDU: Convergence failed at  46  side 1    Res =  0.1258E+01
 MRCHDU: Convergence failed at  47  side 1    Res =  0.3533E+01
 MRCHDU: Convergence failed at  48  side 1    Res =  0.3516E+01
 MRCHDU: Convergence failed at  49  side 1    Res =  0.1020E+01
 Side 1  free  transition at x/c =  0.0477   35
 Side 2  free  transition at x/c =  0.4380   39

   3   rms: 0.1649E+00   max: -.8927E+00   D at   49  1   RLX: 0.560
       a = 11.000      CL =  1.3365
      Cm = -0.1550     CD =  0.06863   =>   CDf =  0.00673    CDp =  0.06190

 Side 1  free  transition at x/c =  0.0465   34
 Side 2  free  transition at x/c =  0.4418   39

   4   rms: 0.5340E-01   max: -.2857E+00   D at   35  1
       a = 11.000      CL =  1.2811
      Cm = -0.1586     CD =  0.07199   =>   CDf =  0.00875    CDp =  0.06324

 Side 1  free  transition at x/c =  0.0495   35
 Side 2  free  transition at x/c =  0.4377   39

   5   rms: 0.2698E-01   max: 0.3609E+00   D at   35  1
       a = 11.000      CL =  1.2939
      Cm = -0.1593     CD =  0.07089   =>   CDf =  0.00844    CDp =  0.06245

 Side 1  free  transition at x/c =  0.0482   35
 Side 2  free  transition at x/c =  0.4391   39

   6   rms: 0.2294E-02   max: 0.2156E-01   T at   35  1
       a = 11.000      CL =  1.2933
      Cm = -0.1593     CD =  0.07102   =>   CDf =  0.00852    CDp =  0.06250

 Side 1  free  transition at x/c =  0.0480   35
 Side 2  free  transition at x/c =  0.4389   39

   7   rms: 0.1489E-03   max: 0.6252E-03   D at   82  2
       a = 11.000      CL =  1.2932
      Cm = -0.1593     CD =  0.07101   =>   CDf =  0.00852    CDp =  0.06249

 Side 1  free  transition at x/c =  0.0480   35
 Side 2  free  transition at x/c =  0.4389   39

   8   rms: 0.5652E-05   max: 0.4746E-04   D at   82  2
       a = 11.000      CL =  1.2932
      Cm = -0.1593     CD =  0.07101   =>   CDf =  0.00852    CDp =  0.06249

 Point added to stored polar  1
 Point written to save file  000097M0.1.log                                  
 Dump file unspecified or not available
 Calculating wake trajectory ...
 Calculating source influence matrix ...

 Solving BL system ...

 Side 1  free  transition at x/c =  0.0480   35
 Side 2  free  transition at x/c =  0.4389   39

   1   rms: 0.1336E+00   max: 0.9705E+00   T at   35  1   RLX: 0.401
       a = 12.000      CL =  1.3011
      Cm = -0.1570     CD =  0.07549   =>   CDf =  0.00854    CDp =  0.06695

 Side 1  free  transition at x/c =  0.0452   34
 Side 2  free  transition at x/c =  0.4526   40

   2   rms: 0.7852E-01   max: 0.5602E+00   T at   34  1
       a = 12.000      CL =  1.3262
      Cm = -0.1543     CD =  0.08010   =>   CDf =  0.00808    CDp =  0.07201

 Side 1  free  transition at x/c =  0.0404   34
 Side 2  free  transition at x/c =  0.4660   40

   3   rms: 0.3201E-01   max: -.2364E+00   D at   34  1
       a = 12.000      CL =  1.3118
      Cm = -0.1537     CD =  0.08109   =>   CDf =  0.00844    CDp =  0.07265

 Side 1  free  transition at x/c =  0.0412   34
 Side 2  free  transition at x/c =  0.4685   40

   4   rms: 0.5330E-02   max: -.2968E-01   D at   73  1
       a = 12.000      CL =  1.3157
      Cm = -0.1537     CD =  0.08039   =>   CDf =  0.00830    CDp =  0.07208

 Side 1  free  transition at x/c =  0.0410   34
 Side 2  free  transition at x/c =  0.4687   40

   5   rms: 0.3353E-03   max: -.2161E-02   D at   82  2
       a = 12.000      CL =  1.3160
      Cm = -0.1537     CD =  0.08046   =>   CDf =  0.00832    CDp =  0.07215

 Side 1  free  transition at x/c =  0.0410   34
 Side 2  free  transition at x/c =  0.4687   40

   6   rms: 0.8073E-05   max: -.6547E-04   D at   81  2
       a = 12.000      CL =  1.3160
      Cm = -0.1537     CD =  0.08047   =>   CDf =  0.00832    CDp =  0.07215

 Point added to stored polar  1
 Point written to save file  000097M0.1.log                                  
 Dump file unspecified or not available
 Calculating wake trajectory ...
 Calculating source influence matrix ...

 Solving BL system ...

 Side 1  free  transition at x/c =  0.0410   34
 Side 2  free  transition at x/c =  0.4687   40

   1   rms: 0.1258E+00   max: 0.6975E+00   T at   34  1   RLX: 0.377
       a = 13.000      CL =  1.3306
      Cm = -0.1520     CD =  0.08373   =>   CDf =  0.00833    CDp =  0.07540

 Side 1  free  transition at x/c =  0.0386   34
 Side 2  free  transition at x/c =  0.4800   40

   2   rms: 0.7537E-01   max: -.4828E+00   T at   40  2
       a = 13.000      CL =  1.3521
      Cm = -0.1488     CD =  0.08886   =>   CDf =  0.00796    CDp =  0.08090

 MRCHDU: Convergence failed at  41  side 2    Res =  0.3108E+01
 MRCHDU: Convergence failed at  42  side 2    Res =  0.2785E+01
 MRCHDU: Convergence failed at  43  side 2    Res =  0.8404E+01
 MRCHDU: Convergence failed at  44  side 2    Res =  0.1308E+03
 MRCHDU: Convergence failed at  45  side 2    Res =  0.5064E+02
 MRCHDU: Convergence failed at  46  side 2    Res =  0.7564E+02
 MRCHDU: Convergence failed at  47  side 2    Res =  0.5316E+02
 MRCHDU: Convergence failed at  48  side 2    Res =  0.1387E+02
 MRCHDU: Convergence failed at  49  side 2    Res =  0.6655E+01
 Side 1  free  transition at x/c =  0.0363   34
 Side 2  free  transition at x/c =  0.5145   41

   3   rms: 0.1170E+00   max: -.9290E+00   D at   48  2   RLX: 0.538
       a = 13.000      CL =  1.3468
      Cm = -0.1471     CD =  0.08802   =>   CDf =  0.00768    CDp =  0.08034

 Side 1  free  transition at x/c =  0.0361   34
 Side 2  free  transition at x/c =  0.5166   41

   4   rms: 0.2643E-01   max: -.4437E+00   D at   42  2
       a = 13.000      CL =  1.3492
      Cm = -0.1488     CD =  0.08843   =>   CDf =  0.00816    CDp =  0.08026

 Side 1  free  transition at x/c =  0.0361   34
 Side 2  free  transition at x/c =  0.5081   41

   5   rms: 0.4225E-02   max: -.7427E-01   D at   42  2
       a = 13.000      CL =  1.3495
      Cm = -0.1488     CD =  0.08839   =>   CDf =  0.00812    CDp =  0.08027

 Side 1  free  transition at x/c =  0.0361   34
 Side 2  free  transition at x/c =  0.5081   41

   6   rms: 0.1453E-03   max: -.2204E-02   D at   42  2
       a = 13.000      CL =  1.3495
      Cm = -0.1488     CD =  0.08840   =>   CDf =  0.00812    CDp =  0.08028

 Side 1  free  transition at x/c =  0.0361   34
 Side 2  free  transition at x/c =  0.5080   41

   7   rms: 0.3300E-05   max: 0.2915E-04   D at    2  1
       a = 13.000      CL =  1.3495
      Cm = -0.1488     CD =  0.08840   =>   CDf =  0.00812    CDp =  0.08028

 Point added to stored polar  1
 Point written to save file  000097M0.1.log                                  
 Dump file unspecified or not available
 Calculating wake trajectory ...
 Calculating source influence matrix ...

 Solving BL system ...

 Side 1  free  transition at x/c =  0.0361   34
 Side 2  free  transition at x/c =  0.5080   41

   1   rms: 0.1327E+00   max: -.7229E+00   T at   41  2   RLX: 0.356
       a = 14.000      CL =  1.3664
      Cm = -0.1474     CD =  0.09107   =>   CDf =  0.00814    CDp =  0.08293

 Side 1  free  transition at x/c =  0.0341   34
 Side 2  free  transition at x/c =  0.5222   41

   2   rms: 0.8509E-01   max: -.6298E+00   T at   41  2   RLX: 0.794
       a = 14.000      CL =  1.3896
      Cm = -0.1451     CD =  0.09424   =>   CDf =  0.00815    CDp =  0.08609

 MRCHDU: Convergence failed at  44  side 2    Res =  0.2856E+01
 Side 1  free  transition at x/c =  0.0326   33
 Side 2  free  transition at x/c =  0.5663   44

   3   rms: 0.2503E-01   max: -.2699E+00   D at   44  2
       a = 14.000      CL =  1.3969
      Cm = -0.1446     CD =  0.09461   =>   CDf =  0.00754    CDp =  0.08707

 Side 1  free  transition at x/c =  0.0319   34
 Side 2  free  transition at x/c =  0.5776   43

   4   rms: 0.6355E-02   max: 0.1092E+00   C at   43  2
       a = 14.000      CL =  1.3969
      Cm = -0.1445     CD =  0.09451   =>   CDf =  0.00786    CDp =  0.08665

 Side 1  free  transition at x/c =  0.0318   34
 Side 2  free  transition at x/c =  0.5747   43

   5   rms: 0.4386E-03   max: -.4526E-02   D at    4  1
       a = 14.000      CL =  1.3968
      Cm = -0.1445     CD =  0.09452   =>   CDf =  0.00788    CDp =  0.08665

 Side 1  free  transition at x/c =  0.0318   34
 Side 2  free  transition at x/c =  0.5746   43

   6   rms: 0.1154E-04   max: 0.9086E-04   D at   81  2
       a = 14.000      CL =  1.3968
      Cm = -0.1445     CD =  0.09452   =>   CDf =  0.00788    CDp =  0.08664

 Point added to stored polar  1
 Point written to save file  000097M0.1.log                                  
 Dump file unspecified or not available
 Calculating wake trajectory ...
 Calculating source influence matrix ...

 Solving BL system ...

 Side 1  free  transition at x/c =  0.0318   34
 Side 2  free  transition at x/c =  0.5746   43

   1   rms: 0.1580E+00   max: -.1750E+01   C at   43  2   RLX: 0.286
       a = 15.000      CL =  1.4131
      Cm = -0.1433     CD =  0.09600   =>   CDf =  0.00790    CDp =  0.08811

 Side 1  free  transition at x/c =  0.0308   34
 Side 2  free  transition at x/c =  0.6023   45

   2   rms: 0.1633E+00   max: -.2171E+01   C at   45  2   RLX: 0.230
       a = 15.000      CL =  1.4234
      Cm = -0.1428     CD =  0.09641   =>   CDf =  0.00784    CDp =  0.08857

 Side 1  free  transition at x/c =  0.0303   34
 Side 2  free  transition at x/c =  0.6211   46

   3   rms: 0.1688E+00   max: -.2515E+01   C at   46  2   RLX: 0.199
       a = 15.000      CL =  1.4304
      Cm = -0.1425     CD =  0.09674   =>   CDf =  0.00781    CDp =  0.08894

 Side 1  free  transition at x/c =  0.0300   34
 Side 2  free  transition at x/c =  0.6396   47

   4   rms: 0.1908E+00   max: -.3088E+01   C at   47  2   RLX: 0.162
       a = 15.000      CL = Got result {'DD': 0.0179, 'Dmin': 0.01802, 'LL': -1.0807}
Completed successfully in 2.29 seconds. [{'DD': 0.0179, 'Dmin': 0.01802, 'LL': -1.0807}]
 1.4354
      Cm = -0.1423     CD =  0.09692   =>   CDf =  0.00778    CDp =  0.08914

 Side 1  free  transition at x/c =  0.0298   34
 Side 2  free  transition at x/c =  0.6592   48

   5   rms: 0.2546E+00   max: -.4516E+01   C at   48  2   RLX: 0.111
       a = 15.000      CL =  1.4387
      Cm = -0.1424     CD =  0.09700   =>   CDf =  0.00775    CDp =  0.08925

 Side 1  free  transition at x/c =  0.0297   34
 Side 2  free  transition at x/c =  0.6778   48

   6   rms: 0.1345E+00   max: -.2302E+01   C at   48  2   RLX: 0.217
       a = 15.000      CL =  1.4437
      Cm = -0.1422     CD =  0.09727   =>   CDf =  0.00771    CDp =  0.08956

 Side 1  free  transition at x/c =  0.0295   34
 Side 2 forced transition at x/c =  1.0001   65

   7   rms: 0.7087E-01   max: -.5095E+00   D at   48  2   RLX: 0.981
       a = 15.000      CL =  1.4544
      Cm = -0.1393     CD =  0.09767   =>   CDf =  0.00702    CDp =  0.09065

 Side 1  free  transition at x/c =  0.0290   34
 Side 2 forced transition at x/c =  1.0001   64

   8   rms: 0.1338E-01   max: 0.8160E-01   D at   42  2
       a = 15.000      CL =  1.4553
      Cm = -0.1389     CD =  0.09720   =>   CDf =  0.00753    CDp =  0.08966

 Side 1  free  transition at x/c =  0.0289   34
 Side 2 forced transition at x/c =  1.0001   64

   9   rms: 0.1880E-02   max: 0.1184E-01   D at   41  2
       a = 15.000      CL =  1.4551
      Cm = -0.1390     CD =  0.09731   =>   CDf =  0.00751    CDp =  0.08980

 Side 1  free  transition at x/c =  0.0289   34
 Side 2 forced transition at x/c =  1.0001   64

  10   rms: 0.7578E-04   max: 0.2876E-03   D at   41  2
       a = 15.000      CL =  1.4551
      Cm = -0.1390     CD =  0.09730   =>   CDf =  0.00751    CDp =  0.08980

 Point added to stored polar  1
 Point written to save file  000097M0.1.log                                  
 Dump file unspecified or not available

.OPERva   c>  
 XFOIL   c>  
