Job launching after 0.37 seconds in submission.
Running python job.
Changed into dir /home/simonx/Documents/Udacity/Projects/capstone/PESM_NSGA2_CST_XFoil
Importing evaluationFunctionXFoil.py
Running evaluationFunctionXFoil.main()
0
1
2
0.04
resp: 
 ===================================================
  XFOIL Version 6.97
  Copyright (C) 2000   Mark Drela, Harold Youngren

  This software comes with ABSOLUTELY NO WARRANTY,
    subject to the GNU General Public License.

  Caveat computor
 ===================================================

 File  xfoil.def  not found

   QUIT    Exit program

  .OPER    Direct operating point(s)
  .MDES    Complex mapping design routine
  .QDES    Surface speed design routine
  .GDES    Geometry design routine

   SAVE f  Write airfoil to labeled coordinate file
   PSAV f  Write airfoil to plain coordinate file
   ISAV f  Write airfoil to ISES coordinate file
   MSAV f  Write airfoil to MSES coordinate file
   REVE    Reverse written-airfoil node ordering
   DELI i  Change written-airfoil file delimiters

   LOAD f  Read buffer airfoil from coordinate file
   NACA i  Set NACA 4,5-digit airfoil and buffer airfoil
   INTE    Set buffer airfoil by interpolating two airfoils
   NORM    Buffer airfoil normalization toggle
   HALF    Halve the number of points in buffer airfoil
   XYCM rr Change CM reference location, currently  0.25000 0.00000

   BEND    Display structural properties of current airfoil

   PCOP    Set current-airfoil panel nodes directly from buffer airfoil points
   PANE    Set current-airfoil panel nodes ( 160 ) based on curvature
  .PPAR    Show/change paneling

  .PLOP    Plotting options

   WDEF f  Write  current-settings file
   RDEF f  Reread current-settings file
   NAME s  Specify new airfoil name
   NINC    Increment name version number

   Z       Zoom    | (available in all menus)
   U       Unzoom  | 

 XFOIL   c>   ...............................................

  G raphics-enable flag:        T
  S ize of plot object          10.00"
  A spect ratio of plot object   0.5500
  P age dimensions              11.00 x  8.50"
  M argins from page edges       0.00",  0.00"
  F ont size (relative)          0.0150
  W indow/screen size fraction   0.8000
  B lowup input method:        Cursor    
  O rientation of plot:        Landscape 
  C olor PostScript output?     F

      Option, Value   (or <Return>)    c>   ...............................................

  G raphics-enable flag:        F
  S ize of plot object          10.00"
  A spect ratio of plot object   0.5500
  P age dimensions              11.00 x  8.50"
  M argins from page edges       0.00",  0.00"
  F ont size (relative)          0.0150
  W indow/screen size fraction   0.8000
  B lowup input method:        Cursor    
  O rientation of plot:        Landscape 
  C olor PostScript output?     F

      Option, Value   (or <Return>)    c>  
 XFOIL   c>  
 Labeled airfoil file.  Name:  000069                                          

 Number of input coordinate points: 200
 Clockwise ordering
 Max thickness =     0.230688  at x =   0.181
 Max camber    =     0.100581  at x =   0.531

  LE  x,y  =  -0.00000   0.00017  |   Chord =   0.99988
  TE  x,y  =   0.99988   0.00006  |

 Current airfoil nodes set from buffer airfoil nodes ( 200 )

 XFOIL   c>  
 You are working with the buffer airfoil

.GDES   c>  
  i       x        y      angle
   2   0.9990   0.0005    0.038
   3   0.9978   0.0011    0.042
   4   0.9961   0.0020    0.034
   5   0.9938   0.0031    0.056
   6   0.9911   0.0044    0.075
   7   0.9880   0.0060    0.069
   8   0.9843   0.0078    0.102
   9   0.9801   0.0098    0.107
  10   0.9755   0.0121    0.120
  11   0.9704   0.0146    0.121
  12   0.9649   0.0172    0.146
  13   0.9589   0.0201    0.160
  14   0.9524   0.0232    0.173
  15   0.9455   0.0265    0.177
  16   0.9382   0.0299    0.198
  17   0.9304   0.0336    0.217
  18   0.9222   0.0373    0.226
  19   0.9135   0.0413    0.247
  20   0.9045   0.0453    0.250
  21   0.8951   0.0495    0.279
  22   0.8853   0.0538    0.293
  23   0.8751   0.0583    0.306
  24   0.8645   0.0628    0.321
  25   0.8536   0.0674    0.335
  26   0.8423   0.0720    0.364
  27   0.8307   0.0768    0.373
  28   0.8187   0.0815    0.393
  29   0.8065   0.0863    0.410
  30   0.7939   0.0911    0.429
  31   0.7810   0.0959    0.445
  32   0.7679   0.1007    0.466
  33   0.7545   0.1055    0.489
  34   0.7409   0.1102    0.501
  35   0.7270   0.1149    0.520
  36   0.7129   0.1195    0.544
  37   0.6986   0.1240    0.561
  38   0.6841   0.1285    0.581
  39   0.6694   0.1328    0.596
  40   0.6545   0.1370    0.616
  41   0.6395   0.1411    0.642
  42   0.6243   0.1450    0.654
  43   0.6091   0.1488    0.675
  44   0.5937   0.1524    0.696
  45   0.5782   0.1558    0.711
  46   0.5627   0.1591    0.734
  47   0.5471   0.1621    0.752
  48   0.5314   0.1650    0.775
  49   0.5157   0.1676    0.788
  50   0.5000   0.1700    0.811
  51   0.4843   0.1722    0.829
  52   0.4686   0.1742    0.849
  53   0.4529   0.1759    0.871
  54   0.4373   0.1774    0.885
  55   0.4218   0.1786    0.914
  56   0.4063   0.1796    0.929
  57   0.3909   0.1803    0.955
  58   0.3757   0.1808    0.973
  59   0.3605   0.1810    0.997
  60   0.3455   0.1809    1.020
  61   0.3306   0.1806    1.047
  62   0.3159   0.1800    1.073
  63   0.3014   0.1791    1.094
  64   0.2871   0.1780    1.131
  65   0.2730   0.1766    1.154
  66   0.2591   0.1749    1.186
  67   0.2455   0.1730    1.227
  68   0.2321   0.1709    1.252
  69   0.2190   0.1685    1.297
  70   0.2061   0.1658    1.337
  71   0.1935   0.1629    1.377
  72   0.1813   0.1597    1.429
  73   0.1693   0.1563    1.471
  74   0.1577   0.1527    1.532
  75   0.1464   0.1488    1.585
  76   0.1355   0.1448    1.651
  77   0.1249   0.1405    1.713
  78   0.1147   0.1360    1.785
  79   0.1049   0.1312    1.864
  80   0.0955   0.1263    1.942
  81   0.0865   0.1212    2.035
  82   0.0778   0.1160    2.125
  83   0.0696   0.1105    2.230
  84   0.0618   0.1049    2.331
  85   0.0545   0.0991    2.446
  86   0.0476   0.0932    2.569
  87   0.0411   0.0872    2.688
  88   0.0351   0.0810    2.829
  89   0.0296   0.0747    2.950
  90   0.0245   0.0682    3.094
  91   0.0199   0.0617    3.234
  92   0.0157   0.0551    3.373
  93   0.0120   0.0484    3.496
  94   0.0089   0.0416    3.639
  95   0.0062   0.0348    3.740
  96   0.0039   0.0279    3.840
  97   0.0022   0.0209    3.932
  98   0.0010   0.0140    3.986
  99   0.0002   0.0070    4.025
 100   0.0000   0.0000    4.218
 101   0.0002  -0.0064    4.398
 102   0.0010  -0.0128    4.431
 103   0.0022  -0.0192    4.495
 104   0.0039  -0.0254    4.556
 105   0.0062  -0.0314    4.639
 106   0.0089  -0.0373    4.742
 107   0.0120  -0.0429    4.799
 108   0.0157  -0.0483    4.879
 109   0.0199  -0.0534    4.919
 110   0.0245  -0.0582    4.919
 111   0.0296  -0.0626    4.896
 112   0.0351  -0.0667    4.807
 113   0.0411  -0.0703    4.690
 114   0.0476  -0.0736    4.527
 115   0.0545  -0.0764    4.311
 116   0.0618  -0.0787    4.081
 117   0.0696  -0.0806    3.829
 118   0.0778  -0.0821    3.559
 119   0.0865  -0.0830    3.290
 120   0.0955  -0.0835    3.005
 121   0.1049  -0.0835    2.753
 122   0.1147  -0.0830    2.487
 123   0.1249  -0.0821    2.249
 124   0.1355  -0.0807    2.010
 125   0.1464  -0.0789    1.799
 126   0.1577  -0.0766    1.582
 127   0.1693  -0.0740    1.399
 128   0.1813  -0.0710    1.215
 129   0.1935  -0.0676    1.042
 130   0.2061  -0.0639    0.890
 131   0.2190  -0.0598    0.732
 132   0.2321  -0.0555    0.597
 133   0.2455  -0.0510    0.457
 134   0.2591  -0.0462    0.331
 135   0.2730  -0.0413    0.216
 136   0.2871  -0.0363    0.097
 137   0.3014  -0.0311   -0.013
 138   0.3159  -0.0259   -0.118
 139   0.3306  -0.0206   -0.213
 140   0.3455  -0.0154   -0.311
 141   0.3605  -0.0101   -0.404
 142   0.3757  -0.0050   -0.491
 143   0.3909   0.0000   -0.568
 144   0.4063   0.0050   -0.650
 145   0.4218   0.0097   -0.718
 146   0.4373   0.0143   -0.796
 147   0.4529   0.0186   -0.848
 148   0.4686   0.0227   -0.910
 149   0.4843   0.0266   -0.963
 150   0.5000   0.0301   -1.006
 151   0.5157   0.0334   -1.050
 152   0.5314   0.0364   -1.078
 153   0.5471   0.0391   -1.109
 154   0.5627   0.0414   -1.125
 155   0.5782   0.0435   -1.135
 156   0.5937   0.0452   -1.146
 157   0.6091   0.0466   -1.138
 158   0.6243   0.0477   -1.136
 159   0.6395   0.0484   -1.120
 160   0.6545   0.0489   -1.092
 161   0.6694   0.0491   -1.072
 162   0.6841   0.0490   -1.039
 163   0.6986   0.0486   -1.003
 164   0.7129   0.0480   -0.960
 165   0.7270   0.0472   -0.913
 166   0.7409   0.0461   -0.871
 167   0.7545   0.0449   -0.813
 168   0.7679   0.0435   -0.770
 169   0.7810   0.0419   -0.715
 170   0.7939   0.0403   -0.654
 171   0.8065   0.0385   -0.609
 172   0.8187   0.0366   -0.548
 173   0.8307   0.0346   -0.500
 174   0.8423   0.0326   -0.441
 175   0.8536   0.0306   -0.399
 176   0.8645   0.0286   -0.341
 177   0.8751   0.0265   -0.297
 178   0.8853   0.0245   -0.261
 179   0.8951   0.0225   -0.208
 180   0.9045   0.0205   -0.168
 181   0.9135   0.0186   -0.146
 182   0.9222   0.0168   -0.093
 183   0.9304   0.0150   -0.080
 184   0.9382   0.0133   -0.041
 185   0.9455   0.0117   -0.026
 186   0.9524   0.0102   -0.004
 187   0.9589   0.0088    0.014
 188   0.9649   0.0075    0.032
 189   0.9704   0.0063    0.036
 190   0.9755   0.0052    0.043
 191   0.9801   0.0042    0.051
 192   0.9843   0.0033    0.049
 193   0.9880   0.0025    0.060
 194   0.9911   0.0019    0.035
 195   0.9938   0.0013    0.045
 196   0.9961   0.0008    0.058
 197   0.9978   0.0005    0.031
 198   0.9990   0.0002   -0.003
 199   0.9998   0.0001   -0.058

 Maximum panel corner angle =  4.919   at  i,x,y  = 110   0.0245  -0.0582

 Enter corner angle criterion for refinement (deg):   2.460
 Enter type of spline parameter (1=uniform, 2=arclength):   1
 Enter refinement x limits:  -0.10000   1.10000
 Number of points added:           74
 Max thickness =     0.230677  at x =   0.181
 Max camber    =     0.100663  at x =   0.531

 Maximum panel corner angle =  2.331   at  i,x,y  =  84   0.0618   0.1049

.GDES   c>  
 Buffer airfoil is not identical to current airfoil

 XFOIL   c>  
 Blunt trailing edge.  Gap =  0.00028

 Paneling parameters used...
   Number of panel nodes       160
   Panel bunching parameter    1.000
   TE/LE panel density ratio   0.150
   Refined-area/LE panel density ratio    0.200
   Top    side refined area x/c limits  1.000 1.000
   Bottom side refined area x/c limits  1.000 1.000

 XFOIL   c>  
Enter output filename   s>  
 XFOIL   c>  
.OPERi   c>   Current iteration limit:          20

Enter new iteration limit   i>  
Enter new iteration limit   i>  
Enter new iteration limit   i>  
.OPERi   c>  
 M  =    0.0000
 Re =  0.3000E+06

.OPERv   c>  
 Sonic Cp =   -420.65      Sonic Q/Qinf =    22.825


.OPERv   c>  
 Polar  1 newly created for accumulation
 Airfoil archived with polar: 000069                                          

Enter  polar save filename  OR  <return> for no file   s>  
 New polar save file available

Enter  polar dump filename  OR  <return> for no file   s>  
 Polar dump file will NOT be written

 Polar accumulation enabled

.OPERva   c>   Calculating unit vorticity distributions ...
 Calculating wake trajectory ...
 Calculating source influence matrix ...

 Solving BL system ...

 Initializing BL ...
    side            1  ...
 MRCHUE: Inverse mode at  58     Hk =   4.232
 MRCHUE: Inverse mode at  59     Hk =   5.131
 MRCHUE: Inverse mode at  60     Hk =   6.017
 MRCHUE: Inverse mode at  61     Hk =   6.897
 MRCHUE: Inverse mode at  62     Hk =   7.776
 MRCHUE: Inverse mode at  63     Hk =   8.654
 MRCHUE: Inverse mode at  64     Hk =   5.645
 MRCHUE: Inverse mode at  65     Hk =   2.970
 MRCHUE: Inverse mode at  84     Hk =   2.500
 MRCHUE: Convergence failed at  85  side 1    Res =  0.4074E+02
    side            2  ...
 MRCHUE: Inverse mode at  33     Hk =   3.874
 MRCHUE: Inverse mode at  34     Hk =   4.555
 MRCHUE: Inverse mode at  35     Hk =   5.246
 MRCHUE: Inverse mode at  36     Hk =   5.956
 MRCHUE: Inverse mode at  37     Hk =   6.697
 MRCHUE: Inverse mode at  38     Hk =   7.479
 MRCHUE: Inverse mode at  39     Hk =   8.313
 MRCHUE: Inverse mode at  40     Hk =   9.211
 MRCHUE: Inverse mode at  41     Hk =   8.376
 MRCHUE: Inverse mode at  42     Hk =   4.162
 MRCHUE: Inverse mode at  43     Hk =   2.500
 MRCHUE: Inverse mode at  44     Hk =   2.500
 MRCHUE: Inverse mode at  45     Hk =   2.500
 MRCHUE: Inverse mode at  46     Hk =   2.500
 MRCHUE: Inverse mode at  47     Hk =   2.500
 MRCHUE: Inverse mode at  48     Hk =   2.500
 MRCHUE: Inverse mode at  49     Hk =   2.500
 MRCHUE: Inverse mode at  50     Hk =   2.500
 MRCHUE: Inverse mode at  51     Hk =   2.500
 MRCHUE: Inverse mode at  52     Hk =   2.500
 MRCHUE: Inverse mode at  53     Hk =   2.500
 MRCHUE: Inverse mode at  54     Hk =   2.500
 MRCHUE: Inverse mode at  55     Hk =   2.500
 MRCHUE: Inverse mode at  56     Hk =   2.500
 MRCHUE: Inverse mode at  57     Hk =   2.500
 MRCHUE: Inverse mode at  58     Hk =   2.500
 MRCHUE: Inverse mode at  59     Hk =   2.500
 MRCHUE: Inverse mode at  60     Hk =   2.500
 MRCHUE: Inverse mode at  61     Hk =   2.500
 MRCHUE: Inverse mode at  62     Hk =   2.500
 MRCHUE: Inverse mode at  63     Hk =   2.500
 MRCHUE: Convergence failed at  77  side 2    Res =  0.1002E+01

 MRCHDU: Convergence failed at  85  side 1    Res =  0.4759E+02
 Side 1  free  transition at x/c =  0.5172   64
 Side 2  free  transition at x/c =  0.2331   41

   1   rms: 0.8634E+00   max: 0.3703E+01   T at   41  2   RLX: 0.314
       a =  2.000      CL =  1.4555
      Cm = -0.2871     CD =  0.01078   =>   CDf =  0.00758    CDp =  0.00320

 Side 1  free  transition at x/c =  0.5266   63
 Side 2  free  transition at x/c =  0.2151   41

   2   rms: 0.2323E+00   max: 0.1272E+01   T at   41  2   RLX: 0.681
       a =  2.000      CL =  1.3176
      Cm = -0.2579     CD =  0.01817   =>   CDf =  0.00708    CDp =  0.01109

 Side 1  free  transition at x/c =  0.5519   63
 Side 2  free  transition at x/c =  0.2030   41

   3   rms: 0.1272E+00   max: -.5510E+00   D at   79  2   RLX: 0.907
       a =  2.000      CL =  1.2691
      Cm = -0.2483     CD =  0.02091   =>   CDf =  0.00642    CDp =  0.01449

 Side 1  free  transition at x/c =  0.5662   64
 Side 2  free  transition at x/c =  0.1979   41

   4   rms: 0.5049E+00   max: -.2164E+01   T at   41  2   RLX: 0.231
       a =  2.000      CL =  1.3025
      Cm = -0.2590     CD =  0.01897   =>   CDf =  0.00606    CDp =  0.01291

 Side 1  free  transition at x/c =  0.5652   64
 Side 2  free  transition at x/c =  0.2058   42

   5   rms: 0.1701E+00   max: -.7416E+00   D at   68  2   RLX: 0.674
       a =  2.000      CL =  1.3000
      Cm = -0.2584     CD =  0.01921   =>   CDf =  0.00636    CDp =  0.01285

 Side 1  free  transition at x/c =  0.5642   64
 Side 2  free  transition at x/c =  0.2070   42

   6   rms: 0.8210E-01   max: -.4173E+00   D at   66  2
       a =  2.000      CL =  1.2915
      Cm = -0.2556     CD =  0.01917   =>   CDf =  0.00663    CDp =  0.01254

 Side 1  free  transition at x/c =  0.5636   64
 Side 2  free  transition at x/c =  0.2064   42

   7   rms: 0.9609E-02   max: 0.8124E-01   T at   42  2
       a =  2.000      CL =  1.2867
      Cm = -0.2542     CD =  0.01945   =>   CDf =  0.00688    CDp =  0.01257

 Side 1  free  transition at x/c =  0.5636   64
 Side 2  free  transition at x/c =  0.2055   42

   8   rms: 0.1325E-02   max: 0.1619E-01   T at   42  2
       a =  2.000      CL =  1.2862
      Cm = -0.2541     CD =  0.01950   =>   CDf =  0.00689    CDp =  0.01261

 Side 1  free  transition at x/c =  0.5636   64
 Side 2  free  transition at x/c =  0.2053   42

   9   rms: 0.1975E-03   max: 0.1734E-02   T at   42  2
       a =  2.000      CL =  1.2861
      Cm = -0.2541     CD =  0.01951   =>   CDf =  0.00689    CDp =  0.01261

 Side 1  free  transition at x/c =  0.5636   64
 Side 2  free  transition at x/c =  0.2053   42

  10   rms: 0.1653E-05   max: 0.1606E-04   T at   42  2
       a =  2.000      CL =  1.2861
      Cm = -0.2541     CD =  0.01951   =>   CDf =  0.00689    CDp =  0.01261

 Point added to stored polar  1
 Point written to save file  000069M0.04.log                                 
 Dump file unspecified or not available
 Calculating wake trajectory ...
 Calculating source influence matrix ...

 Solving BL system ...

 Side 1  free  transition at x/c =  0.5636   64
 Side 2  free  transition at x/c =  0.2053   42

   1   rms: 0.2163E+00   max: -.1363E+01   T at   42  2   RLX: 0.367
       a =  3.000      CL =  1.3302
      Cm = -0.2553     CD =  0.01867   =>   CDf =  0.00669    CDp =  0.01199

 Side 1  free  transition at x/c =  0.5549   65
 Side 2  free  transition at x/c =  0.2131   41

   2   rms: 0.1323E+00   max: -.4117E+00   D at   57  2
       a =  3.000      CL =  1.4409
      Cm = -0.2618     CD =  0.02000   =>   CDf =  0.00650    CDp =  0.01350

 Side 1  free  transition at x/c =  0.5379   65
 Side 2  free  transition at x/c =  0.2189   40

   3   rms: 0.5580E-01   max: -.3613E+00   D at   65  1
       a =  3.000      CL =  1.3885
      Cm = -0.2517     CD =  0.01982   =>   CDf =  0.00715    CDp =  0.01266

 Side 1  free  transition at x/c =  0.5407   64
 Side 2  free  transition at x/c =  0.2163   41

   4   rms: 0.1477E-01   max: 0.8468E-01   D at   84  1
       a =  3.000      CL =  1.3741
      Cm = -0.2492     CD =  0.02003   =>   CDf =  0.00686    CDp =  0.01317

 Side 1  free  transition at x/c =  0.5395   64
 Side 2  free  transition at x/c =  0.2156   41

   5   rms: 0.5138E-03   max: 0.5985E-02   D at   83  1
       a =  3.000      CL =  1.3745
      Cm = -0.2492     CD =  0.02005   =>   CDf =  0.00689    CDp =  0.01316

 Side 1  free  transition at x/c =  0.5395   64
 Side 2  free  transition at x/c =  0.2156   41

   6   rms: 0.5288E-05   max: -.2252E-04   D at   81  2
       a =  3.000      CL =  1.3745
      Cm = -0.2492     CD =  0.02005   =>   CDf =  0.00689    CDp =  0.01316

 Point added to stored polar  1
 Point written to save file  000069M0.04.log                                 
 Dump file unspecified or not available
 Calculating wake trajectory ...
 Calculating source influence matrix ...

 Solving BL system ...

 Side 1  free  transition at x/c =  0.5395   64
 Side 2  free  transition at x/c =  0.2156   41

   1   rms: 0.1413E+00   max: -.7105E+00   T at   41  2   RLX: 0.704
       a =  4.000      CL =  1.4481
      Cm = -0.2483     CD =  0.02016   =>   CDf =  0.00667    CDp =  0.01350

 Side 1  free  transition at x/c =  0.5240   64
 Side 2  free  transition at x/c =  0.2280   41

   2   rms: 0.7625E-01   max: 0.6433E+00   D at   41  2
       a =  4.000      CL =  1.4576
      Cm = -0.2441     CD =  0.02076   =>   CDf =  0.00691    CDp =  0.01385

 Side 1  free  transition at x/c =  0.5143   65
 Side 2  free  transition at x/c =  0.2275   40

   3   rms: 0.1466E-01   max: -.7120E-01   D at   85  1
       a =  4.000      CL =  1.4635
      Cm = -0.2451     CD =  0.02081   =>   CDf =  0.00707    CDp =  0.01374

 Side 1  free  transition at x/c =  0.5151   65
 Side 2  free  transition at x/c =  0.2273   40

   4   rms: 0.7597E-03   max: 0.3981E-02   D at   41  2
       a =  4.000      CL =  1.4640
      Cm = -0.2452     CD =  0.02081   =>   CDf =  0.00703    CDp =  0.01379

 Side 1  free  transition at x/c =  0.5151   65
 Side 2  free  transition at x/c =  0.2273   40

   5   rms: 0.1175E-04   max: 0.1071E-03   D at   41  2
       a =  4.000      CL =  1.4640
      Cm = -0.2452     CD =  0.02081   =>   CDf =  0.00703    CDp =  0.01379

 Point added to stored polar  1
 Point written to save file  000069M0.04.log                                 
 Dump file unspecified or not available
 Calculating wake trajectory ...
 Calculating source influence matrix ...

 Solving BL system ...

 Side 1  free  transition at x/c =  0.5151   65
 Side 2  free  transition at x/c =  0.2273   40

   1   rms: 0.1257E+00   max: -.5758E+00   T at   40  2   RLX: 0.868
       a =  5.000      CL =  1.5516
      Cm = -0.2431     CD =  0.02175   =>   CDf =  0.00678    CDp =  0.01497

 Side 1  free  transition at x/c =  0.4961   65
 Side 2  free  transition at x/c =  0.2376   40

   2   rms: 0.1270E+00   max: -.5749E+00   T at   40  2   RLX: 0.870
       a =  5.000      CL =  1.5505
      Cm = -0.2417     CD =  0.02151   =>   CDf =  0.00702    CDp =  0.01448

 Side 1  free  transition at x/c =  0.4920   65
 Side 2  free  transition at x/c =  0.2422   40

   3   rms: 0.6994E-01   max: -.3024E+00   D at   44  2
       a =  5.000      CL =  1.5525
      Cm = -0.2416     CD =  0.02184   =>   CDf =  0.00697    CDp =  0.01487

 Side 1  free  transition at x/c =  0.4905   65
 Side 2  free  transition at x/c =  0.2416   40

   4   rms: 0.4192E-02   max: 0.4113E-01   T at   40  2
       a =  5.000      CL =  1.5513
      Cm = -0.2411     CD =  0.02198   =>   CDf =  0.00722    CDp =  0.01477

 Side 1  free  transition at x/c =  0.4904   65
 Side 2  free  transition at x/c =  0.2409   40

   5   rms: 0.3476E-03   max: -.1897E-02   D at   43  2
       a =  5.000      CL =  1.5512
      Cm = -0.2411     CD =  0.02199   =>   CDf =  0.00724    CDp =  0.01475

 Side 1  free  transition at x/c =  0.4904   65
 Side 2  free  transition at x/c =  0.2409   40

   6   rms: 0.1545E-05   max: -.9051E-05   D at   83  2
       a =  5.000      CL =  1.5512
      Cm = -0.2411     CD =  0.02199   =>   CDf =  0.00724    CDp =  0.01475

 Point added to stored polar  1
 Point written to save file  000069M0.04.log                                 
 Dump file unspecified or not available
 Calculating wake trajectory ...
 Calculating source influence matrix ...

 Solving BL system ...

 Side 1  free  transition at x/c =  0.4904   65
 Side 2  free  transition at x/c =  0.2409   40

   1   rms: 0.1360E+00   max: -.7000E+00   T at   40  2   RLX: 0.714
       a =  6.000      CL =  1.6340
      Cm = -0.2411     CD =  0.02285   =>   CDf =  0.00698    CDp =  0.01587

 Side 1  free  transition at x/c =  0.4728   65
 Side 2  free  transition at x/c =  0.2506   39

   2   rms: 0.9162E-01   max: -.4320E+00   D at   65  1
       a =  6.000      CL =  1.6184
      Cm = -0.2339     CD =  0.02348   =>   CDf =  0.00706    CDp =  0.01642

 Side 1  free  transition at x/c =  0.4678   64
 Side 2  free  transition at x/c =  0.2545   39

   3   rms: 0.9595E-02   max: -.7062E-01   D at   86  1
       a =  6.000      CL =  1.6220
      Cm = -0.2346     CD =  0.02395   =>   CDf =  0.00727    CDp =  0.01668

 Side 1  free  transition at x/c =  0.4660   64
 Side 2  free  transition at x/c =  0.2540   39

   4   rms: 0.6222E-03   max: 0.3743E-02   D at   40  2
       a =  6.000      CL =  1.6223
      Cm = -0.2347     CD =  0.02394   =>   CDf =  0.00726    CDp =  0.01668

 Side 1  free  transition at x/c =  0.4660   64
 Side 2  free  transition at x/c =  0.2540   39

   5   rms: 0.1473E-04   max: 0.1425E-03   D at   40  2
       a =  6.000      CL =  1.6223
      Cm = -0.2347     CD =  0.02394   =>   CDf =  0.00726    CDp =  0.01668

 Point added to stored polar  1
 Point written to save file  000069M0.04.log                                 
 Dump file unspecified or not available
 Calculating wake trajectory ...
 Calculating source influence matrix ...

 Solving BL system ...

 Side 1  free  transition at x/c =  0.4660   64
 Side 2  free  transition at x/c =  0.2540   39

   1   rms: 0.1205E+00   max: -.6346E+00   T at   39  2   RLX: 0.788
       a =  7.000      CL =  1.6611
      Cm = -0.2277     CD =  0.02603   =>   CDf =  0.00699    CDp =  0.01904

 Side 1  free  transition at x/c =  0.4449   64
 Side 2  free  transition at x/c =  0.2678   39

   2   rms: 0.8280E-01   max: 0.9120E+00   D at   39  2
       a =  7.000      CL =  1.6820
      Cm = -0.2275     CD =  0.02651   =>   CDf =  0.00744    CDp =  0.01907

 Side 1  free  transition at x/c =  0.4420   64
 Side 2  free  transition at x/c =  0.2685   39

   3   rms: 0.1531E-01   max: 0.9639E-01   D at   40  2
       a =  7.000      CL =  1.6859
      Cm = -0.2279     CD =  0.02640   =>   CDf =  0.00721    CDp =  0.01919

 Side 1  free  transition at x/c =  0.4416   64
 Side 2  free  transition at x/c =  0.2675   39

   4   rms: 0.4421E-03   max: 0.4226E-02   D at   40  2
       a =  7.000      CL =  1.6859
      Cm = -0.2279     CD =  0.02640   =>   CDf =  0.00720    CDp =  0.01920

 Side 1  free  transition at x/c =  0.4416   64
 Side 2  free  transition at x/c =  0.2674   39

   5   rms: 0.2105E-05   max: 0.1842E-04   D at   40  2
       a =  7.000      CL =  1.6859
      Cm = -0.2279     CD =  0.02640   =>   CDf =  0.00720    CDp =  0.01920

 Point added to stored polar  1
 Point written to save file  000069M0.04.log                                 
 Dump file unspecified or not available
 Calculating wake trajectory ...
 Calculating source influence matrix ...

 Solving BL system ...

 Side 1  free  transition at x/c =  0.4416   64
 Side 2  free  transition at x/c =  0.2674   39

   1   rms: 0.1132E+00   max: -.4960E+00   T at   39  2   RLX: 0.835
       a =  8.000      CL =  1.7247
      Cm = -0.2208     CD =  0.02926   =>   CDf =  0.00692    CDp =  0.02234

 Side 1  free  transition at x/c =  0.4206   64
 Side 2  free  transition at x/c =  0.2773   38

   2   rms: 0.4868E-01   max: -.2727E+00   D at   39  2
       a =  8.000      CL =  1.7360
      Cm = -0.2200     CD =  0.02995   =>   CDf =  0.00730    CDp =  0.02266

 Side 1  free  transition at x/c =  0.4177   64
 Side 2  free  transition at x/c =  0.2823   39

   3   rms: 0.4015E-01   max: 0.4013E+00   D at   39  2
       a =  8.000      CL =  1.7447
      Cm = -0.2213     CD =  0.02954   =>   CDf =  0.00729    CDp =  0.02226

 Side 1  free  transition at x/c =  0.4173   64
 Side 2  free  transition at x/c =  0.2833   39

   4   rms: 0.1062E-01   max: 0.9299E-01   D at   39  2
       a =  8.000      CL =  1.7445
      Cm = -0.2213     CD =  0.02956   =>   CDf =  0.00724    CDp =  0.02232

 Side 1  free  transition at x/c =  0.4173   64
 Side 2  free  transition at x/c =  0.2826   39

   5   rms: 0.8837E-04   max: 0.7857E-03   T at   39  2
       a =  8.000      CL =  1.7445
      Cm = -0.2213     CD =  0.02956   =>   CDf =  0.00723    CDp =  0.02233

 Point added to stored polar  1
 Point written to save file  000069M0.04.log                                 
 Dump file unspecified or not available
 Calculating wake trajectory ...
 Calculating source influence matrix ...

 Solving BL system ...

 Side 1  free  transition at x/c =  0.4173   64
 Side 2  free  transition at x/c =  0.2826   39

   1   rms: 0.1146E+00   max: -.6038E+00   T at   39  2   RLX: 0.755
       a =  9.000      CL =  1.7814
      Cm = -0.2156     CD =  0.03249   =>   CDf =  0.00694    CDp =  0.02555

 Side 1  free  transition at x/c =  0.3997   64
 Side 2  free  transition at x/c =  0.2923   38

   2   rms: 0.6249E-01   max: -.3097E+00   D at   38  2
       a =  9.000      CL =  1.7873
      Cm = -0.2134     CD =  0.03390   =>   CDf =  0.00718    CDp =  0.02672

 Side 1  free  transition at x/c =  0.3935   64
 Side 2  free  transition at x/c =  0.2978   38

   3   rms: 0.9571E-02   max: -.5719E-01   D at   83  1
       a =  9.000      CL =  1.7949
      Cm = -0.2141     CD =  0.03355   =>   CDf =  0.00720    CDp =  0.02634

 Side 1  free  transition at x/c =  0.3936   64
 Side 2  free  transition at x/c =  0.2981   38

   4   rms: 0.3350E-03   max: 0.2743E-02   D at   39  2
       a =  9.000      CL =  1.7951
      Cm = -0.2142     CD =  0.03356   =>   CDf =  0.00721    CDp =  0.02635

 Side 1  free  transition at x/c =  0.3936   64
 Side 2  free  transition at x/c =  0.2980   38

   5   rms: 0.4951E-05   max: 0.5067E-04   D at   39  2
       a =  9.000      CL =  1.7951
      Cm = -0.2142     CD =  0.03356   =>   CDf =  0.00721    CDp =  0.02635

 Point added to stored polar  1
 Point written to save file  000069M0.04.log                                 
 Dump file unspecified or not available
 Calculating wake trajectory ...
 Calculating source influence matrix ...

 Solving BL system ...

 Side 1  free  transition at x/c =  0.3936   64
 Side 2  free  transition at x/c =  0.2980   38

   1   rms: 0.1154E+00   max: -.6340E+00   T at   38  2   RLX: 0.682
       a = 10.000      CL =  1.8297
      Cm = -0.2096     CD =  0.03651   =>   CDf =  0.00692    CDp =  0.02959

 Side 1  free  transition at x/c =  0.3793   64
 Side 2  free  transition at x/c =  0.3110   38

   2   rms: 0.5833E-01   max: 0.5905E+00   D at   38  2
       a = 10.000      CL =  1.8331
      Cm = -0.2068     CD =  0.03880   =>   CDf =  0.00729    CDp =  0.03150

 Side 1  free  transition at x/c =  0.3700   64
 Side 2  free  transition at x/c =  0.3138   38

   3   rms: 0.1399E-01   max: -.7677E-01   D at   83  1
       a = 10.000      CL =  1.8403
      Cm = -0.2074     CD =  0.03830   =>   CDf =  0.00721    CDp =  0.03109

 Side 1  free  transition at x/c =  0.3707   64
 Side 2  free  transition at x/c =  0.3140   38

   4   rms: 0.1146E-02   max: -.5961E-02   D at   83  1
       a = 10.000      CL =  1.8414
      Cm = -0.2075     CD =  0.03828   =>   CDf =  0.00719    CDp =  0.03109

 Side 1  free  transition at x/c =  0.3707   64
 Side 2  free  transition at x/c =  0.3141   38

   5   rms: 0.2197E-04   max: 0.1784E-03   D at   39  2
       a = 10.000      CL =  1.8414
      Cm = -0.2075     CD =  0.03828   =>   CDf =  0.00719    CDp =  0.03108

 Point added to stored polar  1
 Point written to save file  000069M0.04.log                                 
 Dump file unspecified or not available
 Calculating wake trajectory ...
 Calculating source influence matrix ...

 Solving BL system ...

 Side 1  free  transition at x/c =  0.3707   64
 Side 2  free  transition at x/c =  0.3141   38

   1   rms: 0.1131E+00   max: -.5380E+00   T at   38  2   RLX: 0.615
       a = 11.000      CL =  1.8710
      Cm = -0.2036     CD =  0.04132   =>   CDf =  0.00690    CDp =  0.03442

 Side 1  free  transition at x/c =  0.3588   64
 Side 2  free  transition at x/c =  0.3242   37

   2   rms: 0.5359E-01   max: -.2477E+00   T at   37  2
       a = 11.000      CL =  1.8734
      Cm = -0.2005     CD =  0.04462   =>   CDf =  0.00720    CDp =  0.03742

 Side 1  free  transition at x/c =  0.3479   64
 Side 2  free  transition at x/c =  0.3316   38

   3   rms: 0.3105E-01   max: 0.3480E+00   D at   38  2
       a = 11.000      CL =  1.8820
      Cm = -0.2012     CD =  0.04386   =>   CDf =  0.00728    CDp =  0.03658

 Side 1  free  transition at x/c =  0.3486   64
 Side 2  free  transition at x/c =  0.3321   38

   4   rms: 0.6305E-02   max: 0.6281E-01   D at   38  2
       a = 11.000      CL =  1.8831
      Cm = -0.2013     CD =  0.04382   =>   CDf =  0.00723    CDp =  0.03659

 Side 1  free  transition at x/c =  0.3485   64
 Side 2  free  transition at x/c =  0.3317   38

   5   rms: 0.4201E-04   max: 0.3465E-03   T at   38  2
       a = 11.000      CL =  1.8832
      Cm = -0.2013     CD =  0.04382   =>   CDf =  0.00723    CDp =  0.03659

 Point added to stored polar  1
 Point written to save file  000069M0.04.log                                 
 Dump file unspecified or not available
 Calculating wake trajectory ...
 Calculating source influence matrix ...

 Solving BL system ...

 Side 1  free  transition at x/c =  0.3485   64
 Side 2  free  transition at x/c =  0.3317   38

   1   rms: 0.1192E+00   max: -.7130E+00   T at   38  2   RLX: 0.572
       a = 12.000      CL =  1.9212
      Cm = -0.1985     CD =  0.04589   =>   CDf =  0.00693    CDp =  0.03896

 Side 1  free  transition at x/c =  0.3367   64
 Side 2  free  transition at x/c =  0.3428   37

   2   rms: 0.6936E-01   max: -.3458E+00   D at   64  1
       a = 12.000      CL =  1.9081
      Cm = -0.1947     CD =  0.05131   =>   CDf =  0.00715    CDp =  0.04416

 Side 1  free  transition at x/c =  0.3277   63
 Side 2  free  transition at x/c =  0.3493   37

   3   rms: 0.1435E-01   max: -.1119E+00   D at   83  1
       a = 12.000      CL =  1.9166
      Cm = -0.1951     CD =  0.05043   =>   CDf =  0.00718    CDp =  0.04326

 Side 1  free  transition at x/c =  0.3273   63
 Side 2  free  transition at x/c =  0.3500   37

   4   rms: 0.1223E-02   max: -.4988E-02   D at   83  1
       a = 12.000      CL =  1.9178
      Cm = -0.1952     CD =  0.05045   =>   CDf =  0.00718    CDp =  0.04327

 Side 1  free  transition at x/c =  0.3273   63
 Side 2  free  transition at x/c =  0.3500   37

   5   rms: 0.2762E-04   max: -.2198E-03   D at   80  2
       a = 12.000      CL =  1.9178
      Cm = -0.1952     CD =  0.05045   =>   CDf =  0.00718    CDp =  0.04327

 Point added to stored polar  1
 Point written to save file  000069M0.04.log                                 
 Dump file unspecified or not available
 Calculating wake trajectory ...
 Calculating source influence matrix ...

 Solving BL system ...

 Side 1  free  transition at x/c =  0.3273   63
 Side 2  free  transition at x/c =  0.3500   37

   1   rms: 0.1141E+00   max: -.5701E+00   T at   37  2   RLX: 0.494
       a = 13.000      CL =  1.9255
      Cm = -0.1923     CD =  0.05516   =>   CDf =  0.00688    CDp =  0.04829

 Side 1  free  transition at x/c =  0.3158   64
 Side 2  free  transition at x/c =  0.3615   37

   2   rms: 0.6851E-01   max: 0.7136E+00   D at   37  2
       a = 13.000      CL =  1.9461
      Cm = -0.1897     CD =  0.05825   =>   CDf =  0.00707    CDp =  0.05118

 Side 1  free  transition at x/c =  0.3080   63
 Side 2  free  transition at x/c =  0.3692   37

   3   rms: 0.7665E-02   max: -.7562E-01   D at   38  2
       a = 13.000      CL =  1.9429
      Cm = -0.1897     CD =  0.05845   =>   CDf =  0.00704    CDp =  0.05141

 Side 1  free  transition at x/c =  0.3070   63
 Side 2  free  transition at x/c =  0.3696   37

   4   rms: 0.1539E-02   max: -.8957E-02   D at   81  1
       a = 13.000      CL =  1.9442
      Cm = -0.1897     CD =  0.05830   =>   CDf =  0.00700    CDp =  0.05130

 Side 1  free  transition at x/c =  0.3070   63
 Side 2  free  transition at x/c =  0.3698   37

   5   rms: 0.6778E-04   max: -.4750E-03   D at   80  2
       a = 13.000      CL =  1.9443
      Cm = -0.1897     CD =  0.05831   =>   CDf =  0.00700    CDp =  0.05131

 Point added to stored polar  1
 Point written to save file  000069M0.04.log                                 
 Dump file unspecified or not available
 Calculating wake trajectory ...
 Calculating source influence matrix ...

 Solving BL system ...

 Side 1  free  transition at x/c =  0.3070   63
 Side 2  free  transition at x/c =  0.3698   37

   1   rms: 0.1113E+00   max: -.5205E+00   T at   37  2   RLX: 0.450
       a = 14.000      CL =  1.9486
      Cm = -0.1874     CD =  0.06326   =>   CDf =  0.00703    CDp =  0.05623

 Side 1  free  transition at x/c =  0.2969   63
 Side 2  free  transition at x/c =  0.3776   38

   2   rms: 0.6584E-01   max: -.4286E+00   T at   38  2
       a = 14.000      CL =  1.9745
      Cm = -0.1852     CD =  0.06630   =>   CDf =  0.00665    CDp =  0.05964

 Side 1  free  transition at x/c =  0.2891   63
 Side 2  free  transition at x/c =  0.3926   37

   3   rms: 0.2237E-01   max: -.1310E+00   D at   37  2
       a = 14.000      CL =  1.9634
      Cm = -0.1848     CD =  0.06742   =>   CDf =  0.00690    CDp =  0.06052

 Side 1  free  transition at x/c =  0.2877   63
 Side 2  free  transition at x/c =  0.3895   37

   4   rms: 0.2662E-02   max: -.1761E-01   D at   81  1
       a = 14.000      CL =  1.9655
      Cm = -0.1848     CD =  0.06709   =>   CDf =  0.00684    CDp =  0.06025

 Side 1  free  transition at x/c =  0.2876   63
 Side 2  free  transition at x/c =  0.3898   37

   5   rms: 0.1500E-03   max: -.9164E-03   D at   80  2
       a = 14.000      CL =  1.9656
      Cm = -0.1848     CD =  0.06711   =>   CDf =  0.00685    CDp =  0.06026

 Side 1  free  transition at x/c =  0.2876   63
 Side 2  free  transition at x/c =  0.3898   37

   6   rms: 0.3515E-05   max: 0.2018E-04   D at   38  2
       a = 14.000      CL =  1.9656
      Cm = -0.1848     CD =  0.06711   =>   CDf =  0.00685    CDp =  0.06026

 Point added to stored polar  1
 Point written to save file  000069M0.04.log                                 
 Dump file unspecified or not available
 Calculating wake trajectory ...
 Calculating source influence matrix ...

 Solving BL system ...

 Side 1  free  transition at x/c =  0.2876   63
 Side 2  free  transition at x/c =  0.3898   37

   1   rms: 0.1068E+00   max: -.5488E+00   T at   37  2   RLX: 0.415
       a = 15.000      CL =  1.9717
      Cm = -0.1832     CD =  0.07170   =>   CDf =  0.00688    CDp =  0.06482

 Side 1  free  transition at x/c =  0.2789   63
 Side 2  free  transition at x/c =  0.3979   37

   2   rms: 0.6469E-01   max: -.4718E+00   T at   37  2
       a = 15.000      CL =  1.9919
      Cm = -0.1804     CD =  0.07574   =>   CDf =  0.00655    CDp =  0.06920

 MRCHDU: Convergence failed at  38  side 2    Res =  0.3184E+01
 MRCHDU: Convergence failed at  39  side 2    Res =  0.6684E+01
 MRCHDU: Convergence failed at  40  side 2    Res =  0.5580E+01
 MRCHDU: Convergence failed at  41  side 2    Res =  0.3125E+01
 MRCHDU: Convergence failed at  42  side 2    Res =  0.4237E+01
 MRCHDU: Convergence failed at  43  side 2    Res =  0.4816E+01
 MRCHDU: Convergence failed at  44  side 2    Res =  0.5255E+01
 MRCHDU: Convergence failed at  45  side 2    Res =  0.5381E+01
 MRCHDU: Convergence failed at  46  side 2    Res =  0.5280E+01
 MRCHDU: Convergence failed at  47  side 2    Res =  0.4989E+01
 MRCHDU: Convergence failed at  48  side 2    Res =  0.4535E+01
 MRCHDU: Convergence failed at  49  side 2    Res =  0.3945E+01
 MRCHDU: Convergence failed at  50  side 2    Res =  0.3323E+01
 MRCHDU: Convergence failed at  51  side 2    Res =  0.6616E+01
 MRCHDU: Convergence failed at  52  side 2    Res =  0.5756E+01
 MRCHDU: Convergence failed at  53  side 2    Res =  0.5870E+01
 MRCHDU: Convergence failed at  54  side 2    Res =  0.5993E+01
 Side 1  free  transition at x/c =  0.2711   63
 Side 2  free  transition at x/c =  0.4182   37

   3   rms: 0.1360E+00   max: 0.1357E+01   T at   37  2   RLX: 0.602
       a = 15.000      CL =  1.9703
      Cm = -0.1756     CD =  0.07618   =>   CDf =  0.00621    CDp =  0.06997

 MRCHDU: Convergence failed at  44  side 2    Res =  0.6703E-01
 Side 1  free  transition at x/c =  0.2701   63
 Side 2  free  transition at x/c =  0.3953   36

   4   rms: 0.1799E+00   max: -.1138E+01   T at   36  2   RLX: 0.439
       a = 15.000      CL =  1.9859
      Cm = -0.1808     CD =  0.07682   =>   CDf =  0.00653    CDp =  0.07029

 MRCHDU: Convergence failed at  37  side 2    Res =  0.2897E+01
 MRCHDU: Convergence failed at  38  side 2    Res =  0.7207E+01
 MRCHDU: Convergence failed at  39  side 2    Res =  0.7636E+01
 MRCHDU: Convergence failed at  40  side 2    Res =  0.6639E+01
 MRCHDU: Convergence failed at  41  side 2    Res =  0.1052E+02
 MRCHDU: Convergence failed at  42  side 2    Res =  0.1058E+02
 MRCHDU: Convergence failed at  43  side 2    Res =  0.1354E+02
 MRCHDU: Convergence failed at  44  side 2    Res =  0.1108E+02
 MRCHDU: Convergence failed at  47  side 2    Res =  0.7359E+01
 MRCHDU: Convergence failed at  48  side 2    Res =  0.3417E+01
 MRCHDU: Convergence failed at  49  side 2    Res =  0.3220E+01
 Side 1  free  transition at x/c =  0.2697   63
 Side 2  free  transition at x/c =  0.4150   37

   5   rms: 0.1367E+00   max: 0.1038E+01   D at   45  2   RLX: 0.737
       a = 15.000      CL =  1.9780
      Cm = -0.1790     CD =  0.07658   =>   CDf =  0.00633    CDp =  0.07025

 Side 1  free  transition at x/c =  0.2693   63
 Side 2  free  transition at x/c =  0.4031   37

   6   rms: 0.6777E-01   max: -.6835E+00   D at   39  2   RLX: 0.731
       a = 15.000      CL =  1.9814
      Cm = -0.1802     CD =  0.07672   =>   CDf =  0.00682    CDp =  0.06990

 Side 1  free  transition at x/c =  0.2694   63
 Side 2  free  transition at x/c =  0.4086   37

   7   rms: 0.2907E-01   max: -.3937E+00   D at   39  2
       a = 15.000      CL =  1.9829
      Cm = -0.1807     CD =  0.07671   =>   CDf =  0.00671    CDp =  0.07000

 Side 1  free  transition at x/c =  0.2693   63
 Side 2  free  transition at x/c =  0.4123   37

   8   rms: 0.3798E-02   max: -.6338E-01   D at   39  2
       a = 15.000      CL =  1.9829
      Cm = -0.1807     CD =  0.07671   =>   CDf =  0.00670    CDp =  0.07001

 Side 1  free  transition at x/c =  0.2693   63
 Side 2  free  transition at x/c =  0.4118   37

   9   rms: 0.1259E-03   max: -.2843E-02   D at   39  2
       a = 15.000      CL =  1.9829
      Cm = -0.1807     CD =  0.07671   =>   CDf =  0.00670    CDp =  0.07001

 Side 1  free  transition at x/c =  0.2693   63
 Side 2  free  transition at x/c =  0.4118   37

  10   rms: 0.2362E-05   max: 0.1779E-04   D at   81  2
       a = 15.000      CL =  1.9829
      Cm = -0.1807     CD =  0.07671   =>   CDf =  0.00670    CDp =  0.07001

 Point added to stored polar  1
 Point written to save file  000069M0.04.log                                 
 Dump file unspecified or not available

.OPERva   c>  
 XFOIL   c>  
0.1
resp: 
 ===================================================
  XFOIL Version 6.97
  Copyright (C) 2000   Mark Drela, Harold Youngren

  This software comes with ABSOLUTELY NO WARRANTY,
    subject to the GNU General Public License.

  Caveat computor
 ===================================================

 File  xfoil.def  not found

   QUIT    Exit program

  .OPER    Direct operating point(s)
  .MDES    Complex mapping design routine
  .QDES    Surface speed design routine
  .GDES    Geometry design routine

   SAVE f  Write airfoil to labeled coordinate file
   PSAV f  Write airfoil to plain coordinate file
   ISAV f  Write airfoil to ISES coordinate file
   MSAV f  Write airfoil to MSES coordinate file
   REVE    Reverse written-airfoil node ordering
   DELI i  Change written-airfoil file delimiters

   LOAD f  Read buffer airfoil from coordinate file
   NACA i  Set NACA 4,5-digit airfoil and buffer airfoil
   INTE    Set buffer airfoil by interpolating two airfoils
   NORM    Buffer airfoil normalization toggle
   HALF    Halve the number of points in buffer airfoil
   XYCM rr Change CM reference location, currently  0.25000 0.00000

   BEND    Display structural properties of current airfoil

   PCOP    Set current-airfoil panel nodes directly from buffer airfoil points
   PANE    Set current-airfoil panel nodes ( 160 ) based on curvature
  .PPAR    Show/change paneling

  .PLOP    Plotting options

   WDEF f  Write  current-settings file
   RDEF f  Reread current-settings file
   NAME s  Specify new airfoil name
   NINC    Increment name version number

   Z       Zoom    | (available in all menus)
   U       Unzoom  | 

 XFOIL   c>   ...............................................

  G raphics-enable flag:        T
  S ize of plot object          10.00"
  A spect ratio of plot object   0.5500
  P age dimensions              11.00 x  8.50"
  M argins from page edges       0.00",  0.00"
  F ont size (relative)          0.0150
  W indow/screen size fraction   0.8000
  B lowup input method:        Cursor    
  O rientation of plot:        Landscape 
  C olor PostScript output?     F

      Option, Value   (or <Return>)    c>   ...............................................

  G raphics-enable flag:        F
  S ize of plot object          10.00"
  A spect ratio of plot object   0.5500
  P age dimensions              11.00 x  8.50"
  M argins from page edges       0.00",  0.00"
  F ont size (relative)          0.0150
  W indow/screen size fraction   0.8000
  B lowup input method:        Cursor    
  O rientation of plot:        Landscape 
  C olor PostScript output?     F

      Option, Value   (or <Return>)    c>  
 XFOIL   c>  
 Labeled airfoil file.  Name:  000069                                          

 Number of input coordinate points: 200
 Clockwise ordering
 Max thickness =     0.230688  at x =   0.181
 Max camber    =     0.100581  at x =   0.531

  LE  x,y  =  -0.00000   0.00017  |   Chord =   0.99988
  TE  x,y  =   0.99988   0.00006  |

 Current airfoil nodes set from buffer airfoil nodes ( 200 )

 XFOIL   c>  
 You are working with the buffer airfoil

.GDES   c>  
  i       x        y      angle
   2   0.9990   0.0005    0.038
   3   0.9978   0.0011    0.042
   4   0.9961   0.0020    0.034
   5   0.9938   0.0031    0.056
   6   0.9911   0.0044    0.075
   7   0.9880   0.0060    0.069
   8   0.9843   0.0078    0.102
   9   0.9801   0.0098    0.107
  10   0.9755   0.0121    0.120
  11   0.9704   0.0146    0.121
  12   0.9649   0.0172    0.146
  13   0.9589   0.0201    0.160
  14   0.9524   0.0232    0.173
  15   0.9455   0.0265    0.177
  16   0.9382   0.0299    0.198
  17   0.9304   0.0336    0.217
  18   0.9222   0.0373    0.226
  19   0.9135   0.0413    0.247
  20   0.9045   0.0453    0.250
  21   0.8951   0.0495    0.279
  22   0.8853   0.0538    0.293
  23   0.8751   0.0583    0.306
  24   0.8645   0.0628    0.321
  25   0.8536   0.0674    0.335
  26   0.8423   0.0720    0.364
  27   0.8307   0.0768    0.373
  28   0.8187   0.0815    0.393
  29   0.8065   0.0863    0.410
  30   0.7939   0.0911    0.429
  31   0.7810   0.0959    0.445
  32   0.7679   0.1007    0.466
  33   0.7545   0.1055    0.489
  34   0.7409   0.1102    0.501
  35   0.7270   0.1149    0.520
  36   0.7129   0.1195    0.544
  37   0.6986   0.1240    0.561
  38   0.6841   0.1285    0.581
  39   0.6694   0.1328    0.596
  40   0.6545   0.1370    0.616
  41   0.6395   0.1411    0.642
  42   0.6243   0.1450    0.654
  43   0.6091   0.1488    0.675
  44   0.5937   0.1524    0.696
  45   0.5782   0.1558    0.711
  46   0.5627   0.1591    0.734
  47   0.5471   0.1621    0.752
  48   0.5314   0.1650    0.775
  49   0.5157   0.1676    0.788
  50   0.5000   0.1700    0.811
  51   0.4843   0.1722    0.829
  52   0.4686   0.1742    0.849
  53   0.4529   0.1759    0.871
  54   0.4373   0.1774    0.885
  55   0.4218   0.1786    0.914
  56   0.4063   0.1796    0.929
  57   0.3909   0.1803    0.955
  58   0.3757   0.1808    0.973
  59   0.3605   0.1810    0.997
  60   0.3455   0.1809    1.020
  61   0.3306   0.1806    1.047
  62   0.3159   0.1800    1.073
  63   0.3014   0.1791    1.094
  64   0.2871   0.1780    1.131
  65   0.2730   0.1766    1.154
  66   0.2591   0.1749    1.186
  67   0.2455   0.1730    1.227
  68   0.2321   0.1709    1.252
  69   0.2190   0.1685    1.297
  70   0.2061   0.1658    1.337
  71   0.1935   0.1629    1.377
  72   0.1813   0.1597    1.429
  73   0.1693   0.1563    1.471
  74   0.1577   0.1527    1.532
  75   0.1464   0.1488    1.585
  76   0.1355   0.1448    1.651
  77   0.1249   0.1405    1.713
  78   0.1147   0.1360    1.785
  79   0.1049   0.1312    1.864
  80   0.0955   0.1263    1.942
  81   0.0865   0.1212    2.035
  82   0.0778   0.1160    2.125
  83   0.0696   0.1105    2.230
  84   0.0618   0.1049    2.331
  85   0.0545   0.0991    2.446
  86   0.0476   0.0932    2.569
  87   0.0411   0.0872    2.688
  88   0.0351   0.0810    2.829
  89   0.0296   0.0747    2.950
  90   0.0245   0.0682    3.094
  91   0.0199   0.0617    3.234
  92   0.0157   0.0551    3.373
  93   0.0120   0.0484    3.496
  94   0.0089   0.0416    3.639
  95   0.0062   0.0348    3.740
  96   0.0039   0.0279    3.840
  97   0.0022   0.0209    3.932
  98   0.0010   0.0140    3.986
  99   0.0002   0.0070    4.025
 100   0.0000   0.0000    4.218
 101   0.0002  -0.0064    4.398
 102   0.0010  -0.0128    4.431
 103   0.0022  -0.0192    4.495
 104   0.0039  -0.0254    4.556
 105   0.0062  -0.0314    4.639
 106   0.0089  -0.0373    4.742
 107   0.0120  -0.0429    4.799
 108   0.0157  -0.0483    4.879
 109   0.0199  -0.0534    4.919
 110   0.0245  -0.0582    4.919
 111   0.0296  -0.0626    4.896
 112   0.0351  -0.0667    4.807
 113   0.0411  -0.0703    4.690
 114   0.0476  -0.0736    4.527
 115   0.0545  -0.0764    4.311
 116   0.0618  -0.0787    4.081
 117   0.0696  -0.0806    3.829
 118   0.0778  -0.0821    3.559
 119   0.0865  -0.0830    3.290
 120   0.0955  -0.0835    3.005
 121   0.1049  -0.0835    2.753
 122   0.1147  -0.0830    2.487
 123   0.1249  -0.0821    2.249
 124   0.1355  -0.0807    2.010
 125   0.1464  -0.0789    1.799
 126   0.1577  -0.0766    1.582
 127   0.1693  -0.0740    1.399
 128   0.1813  -0.0710    1.215
 129   0.1935  -0.0676    1.042
 130   0.2061  -0.0639    0.890
 131   0.2190  -0.0598    0.732
 132   0.2321  -0.0555    0.597
 133   0.2455  -0.0510    0.457
 134   0.2591  -0.0462    0.331
 135   0.2730  -0.0413    0.216
 136   0.2871  -0.0363    0.097
 137   0.3014  -0.0311   -0.013
 138   0.3159  -0.0259   -0.118
 139   0.3306  -0.0206   -0.213
 140   0.3455  -0.0154   -0.311
 141   0.3605  -0.0101   -0.404
 142   0.3757  -0.0050   -0.491
 143   0.3909   0.0000   -0.568
 144   0.4063   0.0050   -0.650
 145   0.4218   0.0097   -0.718
 146   0.4373   0.0143   -0.796
 147   0.4529   0.0186   -0.848
 148   0.4686   0.0227   -0.910
 149   0.4843   0.0266   -0.963
 150   0.5000   0.0301   -1.006
 151   0.5157   0.0334   -1.050
 152   0.5314   0.0364   -1.078
 153   0.5471   0.0391   -1.109
 154   0.5627   0.0414   -1.125
 155   0.5782   0.0435   -1.135
 156   0.5937   0.0452   -1.146
 157   0.6091   0.0466   -1.138
 158   0.6243   0.0477   -1.136
 159   0.6395   0.0484   -1.120
 160   0.6545   0.0489   -1.092
 161   0.6694   0.0491   -1.072
 162   0.6841   0.0490   -1.039
 163   0.6986   0.0486   -1.003
 164   0.7129   0.0480   -0.960
 165   0.7270   0.0472   -0.913
 166   0.7409   0.0461   -0.871
 167   0.7545   0.0449   -0.813
 168   0.7679   0.0435   -0.770
 169   0.7810   0.0419   -0.715
 170   0.7939   0.0403   -0.654
 171   0.8065   0.0385   -0.609
 172   0.8187   0.0366   -0.548
 173   0.8307   0.0346   -0.500
 174   0.8423   0.0326   -0.441
 175   0.8536   0.0306   -0.399
 176   0.8645   0.0286   -0.341
 177   0.8751   0.0265   -0.297
 178   0.8853   0.0245   -0.261
 179   0.8951   0.0225   -0.208
 180   0.9045   0.0205   -0.168
 181   0.9135   0.0186   -0.146
 182   0.9222   0.0168   -0.093
 183   0.9304   0.0150   -0.080
 184   0.9382   0.0133   -0.041
 185   0.9455   0.0117   -0.026
 186   0.9524   0.0102   -0.004
 187   0.9589   0.0088    0.014
 188   0.9649   0.0075    0.032
 189   0.9704   0.0063    0.036
 190   0.9755   0.0052    0.043
 191   0.9801   0.0042    0.051
 192   0.9843   0.0033    0.049
 193   0.9880   0.0025    0.060
 194   0.9911   0.0019    0.035
 195   0.9938   0.0013    0.045
 196   0.9961   0.0008    0.058
 197   0.9978   0.0005    0.031
 198   0.9990   0.0002   -0.003
 199   0.9998   0.0001   -0.058

 Maximum panel corner angle =  4.919   at  i,x,y  = 110   0.0245  -0.0582

 Enter corner angle criterion for refinement (deg):   2.460
 Enter type of spline parameter (1=uniform, 2=arclength):   1
 Enter refinement x limits:  -0.10000   1.10000
 Number of points added:           74
 Max thickness =     0.230677  at x =   0.181
 Max camber    =     0.100663  at x =   0.531

 Maximum panel corner angle =  2.331   at  i,x,y  =  84   0.0618   0.1049

.GDES   c>  
 Buffer airfoil is not identical to current airfoil

 XFOIL   c>  
 Blunt trailing edge.  Gap =  0.00028

 Paneling parameters used...
   Number of panel nodes       160
   Panel bunching parameter    1.000
   TE/LE panel density ratio   0.150
   Refined-area/LE panel density ratio    0.200
   Top    side refined area x/c limits  1.000 1.000
   Bottom side refined area x/c limits  1.000 1.000

 XFOIL   c>  
.OPERi   c>   Current iteration limit:          20

Enter new iteration limit   i>  
Enter new iteration limit   i>  
Enter new iteration limit   i>  
.OPERi   c>  
 M  =    0.0000
 Re =  0.3000E+06

.OPERv   c>  
 Sonic Cp =    -66.86      Sonic Q/Qinf =     9.138


.OPERv   c>  
 Polar  1 newly created for accumulation
 Airfoil archived with polar: 000069                                          

Enter  polar save filename  OR  <return> for no file   s>  
 New polar save file available

Enter  polar dump filename  OR  <return> for no file   s>  
 Polar dump file will NOT be written

 Polar accumulation enabled

.OPERva   c>   Calculating unit vorticity distributions ...
 Calculating wake trajectory ...
 Calculating source influence matrix ...

 Solving BL system ...

 Initializing BL ...
    side            1  ...
 MRCHUE: Inverse mode at  58     Hk =   4.265
 MRCHUE: Inverse mode at  59     Hk =   5.163
 MRCHUE: Inverse mode at  60     Hk =   6.049
 MRCHUE: Inverse mode at  61     Hk =   6.929
 MRCHUE: Inverse mode at  62     Hk =   7.807
 MRCHUE: Inverse mode at  63     Hk =   8.686
 MRCHUE: Inverse mode at  64     Hk =   5.384
 MRCHUE: Inverse mode at  65     Hk =   2.839
 MRCHUE: Inverse mode at  83     Hk =   2.500
 MRCHUE: Inverse mode at  84     Hk =   2.500
 MRCHUE: Convergence failed at  85  side 1    Res =  0.4480E+02
    side            2  ...
 MRCHUE: Inverse mode at  33     Hk =   3.885
 MRCHUE: Inverse mode at  34     Hk =   4.566
 MRCHUE: Inverse mode at  35     Hk =   5.257
 MRCHUE: Inverse mode at  36     Hk =   5.968
 MRCHUE: Inverse mode at  37     Hk =   6.709
 MRCHUE: Inverse mode at  38     Hk =   7.491
 MRCHUE: Inverse mode at  39     Hk =   8.326
 MRCHUE: Inverse mode at  40     Hk =   9.224
 MRCHUE: Inverse mode at  41     Hk =   8.301
 MRCHUE: Inverse mode at  42     Hk =   4.127
 MRCHUE: Inverse mode at  43     Hk =   2.500
 MRCHUE: Inverse mode at  44     Hk =   2.500
 MRCHUE: Inverse mode at  45     Hk =   2.500
 MRCHUE: Inverse mode at  46     Hk =   2.500
 MRCHUE: Inverse mode at  47     Hk =   2.500
 MRCHUE: Inverse mode at  48     Hk =   2.500
 MRCHUE: Inverse mode at  49     Hk =   2.500
 MRCHUE: Inverse mode at  50     Hk =   2.500
 MRCHUE: Inverse mode at  51     Hk =   2.500
 MRCHUE: Inverse mode at  52     Hk =   2.500
 MRCHUE: Inverse mode at  53     Hk =   2.500
 MRCHUE: Inverse mode at  54     Hk =   2.500
 MRCHUE: Inverse mode at  55     Hk =   2.500
 MRCHUE: Inverse mode at  56     Hk =   2.500
 MRCHUE: Inverse mode at  57     Hk =   2.500
 MRCHUE: Inverse mode at  58     Hk =   2.500
 MRCHUE: Inverse mode at  59     Hk =   2.500
 MRCHUE: Inverse mode at  60     Hk =   2.500
 MRCHUE: Inverse mode at  61     Hk =   2.500
 MRCHUE: Inverse mode at  62     Hk =   2.500
 MRCHUE: Inverse mode at  63     Hk =   2.500
 MRCHUE: Convergence failed at  77  side 2    Res =  0.1028E+01

 MRCHDU: Convergence failed at  85  side 1    Res =  0.5320E+02
 Side 1  free  transition at x/c =  0.5158   64
 Side 2  free  transition at x/c =  0.2329   41

   1   rms: 0.7853E+00   max: 0.3417E+01   T at   41  2   RLX: 0.352
       a =  2.000      CL =  1.4461
      Cm = -0.2849     CD =  0.01106   =>   CDf =  0.00758    CDp =  0.00348

 MRCHDU: Convergence failed at  42  side 2    Res =  0.8579E+01
 MRCHDU: Convergence failed at  43  side 2    Res =  0.1171E+03
 MRCHDU: Convergence failed at  44  side 2    Res =  0.1642E+02
 MRCHDU: Convergence failed at  45  side 2    Res =  0.7360E+02
 MRCHDU: Convergence failed at  46  side 2    Res =  0.2618E+02
 MRCHDU: Convergence failed at  47  side 2    Res =  0.2204E+02
 MRCHDU: Convergence failed at  48  side 2    Res =  0.2695E+02
 MRCHDU: Convergence failed at  49  side 2    Res =  0.4523E+02
 MRCHDU: Convergence failed at  50  side 2    Res =  0.2514E+02
 MRCHDU: Convergence failed at  51  side 2    Res =  0.2557E+02
 MRCHDU: Convergence failed at  52  side 2    Res =  0.3011E+02
 MRCHDU: Convergence failed at  53  side 2    Res =  0.3601E+02
 MRCHDU: Convergence failed at  54  side 2    Res =  0.2859E+03
 MRCHDU: Convergence failed at  55  side 2    Res =  0.1177E+03
 MRCHDU: Convergence failed at  56  side 2    Res =  0.3423E+02
 MRCHDU: Convergence failed at  57  side 2    Res =  0.4026E+02
 MRCHDU: Convergence failed at  58  side 2    Res =  0.3909E+02
 MRCHDU: Convergence failed at  59  side 2    Res =  0.3977E+02
 MRCHDU: Convergence failed at  60  side 2    Res =  0.3175E+02
 MRCHDU: Convergence failed at  61  side 2    Res =  0.2846E+02
 MRCHDU: Convergence failed at  62  side 2    Res =  0.8840E+02
 MRCHDU: Convergence failed at  63  side 2    Res =  0.1233E+03
 MRCHDU: Convergence failed at  64  side 2    Res =  0.6006E+02
 MRCHDU: Convergence failed at  65  side 2    Res =  0.2471E+03
 MRCHDU: Convergence failed at  66  side 2    Res =  0.9682E+02
 MRCHDU: Convergence failed at  67  side 2    Res =  0.4594E+02
 MRCHDU: Convergence failed at  68  side 2    Res =  0.3030E+02
 MRCHDU: Convergence failed at  69  side 2    Res =  0.7269E+02
 MRCHDU: Convergence failed at  70  side 2    Res =  0.1636E+03
 MRCHDU: Convergence failed at  71  side 2    Res =  0.4439E+02
 MRCHDU: Convergence failed at  72  side 2    Res =  0.1167E+03
 MRCHDU: Convergence failed at  73  side 2    Res =  0.4966E+02
 MRCHDU: Convergence failed at  74  side 2    Res =  0.1425E+04
 MRCHDU: Convergence failed at  75  side 2    Res =  0.9999E+02
 MRCHDU: Convergence failed at  76  side 2    Res =  0.7822E+02
 MRCHDU: Convergence failed at  77  side 2    Res =  0.1554E+04
 MRCHDU: Convergence failed at  78  side 2    Res =  0.5139E+02
 Side 1  free  transition at x/c =  0.5261   63
 Side 2  free  transition at x/c =  0.2142   41

   2   rms: 0.9161E+00   max: 0.5396E+01   T at   41  2   RLX: 0.247
       a =  2.000      CL =  0.9756
      Cm = -0.1092     CD =  0.00906   =>   CDf =  0.00643    CDp =  0.00263

 Side 1  free  transition at x/c =  0.5336   64
 Side 2  free  transition at x/c =  0.2012   40

   3   rms: 0.4198E+00   max: 0.5083E+01   T at   40  2   RLX: 0.212
       a =  2.000      CL =  1.0652
      Cm = -0.1645     CD =  0.03248   =>   CDf =  0.00647    CDp =  0.02601

 Side 1  free  transition at x/c =  0.5426   63
 Side 2  free  transition at x/c =  0.1911   40

   4   rms: 0.6940E+00   max: 0.3608E+01   T at   43  2   RLX: 0.206
       a =  2.000      CL =  0.9883
      Cm = -0.1660     CD =  0.03502   =>   CDf =  0.00613    CDp =  0.02889

 MRCHDU: Convergence failed at  42  side 2    Res =  0.5257E+01
 MRCHDU: Convergence failed at  43  side 2    Res =  0.7185E+01
 MRCHDU: Convergence failed at  44  side 2    Res =  0.5563E+01
 MRCHDU: Convergence failed at  45  side 2    Res =  0.3234E+02
 MRCHDU: Convergence failed at  46  side 2    Res =  0.6871E+01
 MRCHDU: Convergence failed at  47  side 2    Res =  0.8433E+01
 MRCHDU: Convergence failed at  48  side 2    Res =  0.1561E+02
 MRCHDU: Convergence failed at  49  side 2    Res =  0.5146E+02
 MRCHDU: Convergence failed at  50  side 2    Res =  0.7177E+02
 MRCHDU: Convergence failed at  51  side 2    Res =  0.2449E+02
 MRCHDU: Convergence failed at  52  side 2    Res =  0.1679E+02
 MRCHDU: Convergence failed at  53  side 2    Res =  0.1338E+02
 MRCHDU: Convergence failed at  54  side 2    Res =  0.1169E+02
 MRCHDU: Convergence failed at  55  side 2    Res =  0.1045E+02
 MRCHDU: Convergence failed at  56  side 2    Res =  0.9795E+01
 MRCHDU: Convergence failed at  57  side 2    Res =  0.9410E+01
 MRCHDU: Convergence failed at  58  side 2    Res =  0.9076E+01
 MRCHDU: Convergence failed at  59  side 2    Res =  0.8954E+01
 MRCHDU: Convergence failed at  60  side 2    Res =  0.9110E+01
 MRCHDU: Convergence failed at  61  side 2    Res =  0.9372E+01
 MRCHDU: Convergence failed at  62  side 2    Res =  0.9928E+01
 MRCHDU: Convergence failed at  63  side 2    Res =  0.1052E+02
 MRCHDU: Convergence failed at  64  side 2    Res =  0.1136E+02
 MRCHDU: Convergence failed at  65  side 2    Res =  0.1236E+02
 MRCHDU: Convergence failed at  66  side 2    Res =  0.1395E+02
 MRCHDU: Convergence failed at  67  side 2    Res =  0.1627E+02
 MRCHDU: Convergence failed at  68  side 2    Res =  0.2033E+02
 MRCHDU: Convergence failed at  69  side 2    Res =  0.2939E+02
 MRCHDU: Convergence failed at  70  side 2    Res =  0.4996E+02
 MRCHDU: Convergence failed at  71  side 2    Res =  0.2434E+03
 MRCHDU: Convergence failed at  72  side 2    Res =  0.4779E+02
 MRCHDU: Convergence failed at  73  side 2    Res =  0.2422E+02
 MRCHDU: Convergence failed at  74  side 2    Res =  0.1454E+02
 MRCHDU: Convergence failed at  75  side 2    Res =  0.1064E+02
 MRCHDU: Convergence failed at  76  side 2    Res =  0.7109E+01
 MRCHDU: Convergence failed at  77  side 2    Res =  0.9888E+01
 MRCHDU: Convergence failed at  78  side 2    Res =  0.1464E+02
 MRCHDU: Convergence failed at  79  side 2    Res =  0.2975E+02
 MRCHDU: Convergence failed at  80  side 2    Res =  0.1009E+03
 Side 1  free  transition at x/c =  0.5491   62
 Side 2  free  transition at x/c =  0.2001   42

   5   rms: 0.1226E+01   max: 0.4599E+01   D at   58  2   RLX: 0.326
       a =  2.000      CL =  0.7382
      Cm = -0.0634     CD =  0.01150   =>   CDf =  0.00572    CDp =  0.00579

 Side 1  free  transition at x/c =  0.5539   62
 Side 2  free  transition at x/c =  0.1921   42

   6   rms: 0.2585E+00   max: 0.9664E+00   T at   42  2   RLX: 0.592
       a =  2.000      CL =  0.9746
      Cm = -0.1699     CD =  0.03180   =>   CDf =  0.00612    CDp =  0.02568

 MRCHDU: Convergence failed at  75  side 2    Res =  0.4030E-01
 MRCHDU: Convergence failed at  76  side 2    Res =  0.6228E-03
 Side 1  free  transition at x/c =  0.5674   63
 Side 2  free  transition at x/c =  0.1901   41

   7   rms: 0.2787E+00   max: -.1193E+01   D at   80  2   RLX: 0.419
       a =  2.000      CL =  0.9509
      Cm = -0.1836     CD =  0.02637   =>   CDf =  0.00581    CDp =  0.02056

 MRCHDU: Convergence failed at  76  side 2    Res =  0.1294E+00
 MRCHDU: Convergence failed at  77  side 2    Res =  0.4911E+00
 MRCHDU: Convergence failed at  78  side 2    Res =  0.7510E-01
 Side 1  free  transition at x/c =  0.5686   62
 Side 2  free  transition at x/c =  0.1916   43

   8   rms: 0.3473E+00   max: -.1658E+01   T at   43  2   RLX: 0.302
       a =  2.000      CL =  1.1132
      Cm = -0.2282     CD =  0.01960   =>   CDf =  0.00544    CDp =  0.01415

 MRCHDU: Convergence failed at  77  side 2    Res =  0.1931E-01
 Side 1  free  transition at x/c =  0.5663   63
 Side 2  free  transition at x/c =  0.2010   42

   9   rms: 0.2382E+00   max: 0.1368E+01   D at   77  2   RLX: 0.753
       a =  2.000      CL =  1.2351
      Cm = -0.2376     CD =  0.02712   =>   CDf =  0.00560    CDp =  0.02153

 Side 1  free  transition at x/c =  0.5621   64
 Side 2  free  transition at x/c =  0.1912   40

  10   rms: 0.9797E-01   max: -.7666E+00   D at   75  2   RLX: 0.652
       a =  2.000      CL =  1.2386
      Cm = -0.2374     CD =  0.02604   =>   CDf =  0.00577    CDp =  0.02027

 Side 1  free  transition at x/c =  0.5620   64
 Side 2  free  transition at x/c =  0.1898   40

  11   rms: 0.6311E-01   max: -.6448E+00   D at   75  2   RLX: 0.775
       a =  2.000      CL =  1.2137
      Cm = -0.2318     CD =  0.02603   =>   CDf =  0.00579    CDp =  0.02024

 Side 1  free  transition at x/c =  0.5624   64
 Side 2  free  transition at x/c =  0.1874   40

  12   rms: 0.4395E-01   max: -.3503E+00   D at   75  2
       a =  2.000      CL =  1.1659
      Cm = -0.2201     CD =  0.02717   =>   CDf =  0.00577    CDp =  0.02140

 Side 1  free  transition at x/c =  0.5632   64
 Side 2  free  transition at x/c =  0.1831   40

  13   rms: 0.5980E-01   max: -.3151E+00   T at   40  2
       a =  2.000      CL =  1.1896
      Cm = -0.2271     CD =  0.02534   =>   CDf =  0.00567    CDp =  0.01967

 Side 1  free  transition at x/c =  0.5630   64
 Side 2  free  transition at x/c =  0.1869   40

  14   rms: 0.4056E-01   max: 0.2916E+00   T at   40  2
       a =  2.000      CL =  1.1621
      Cm = -0.2193     CD =  0.02711   =>   CDf =  0.00579    CDp =  0.02132

 Side 1  free  transition at x/c =  0.5633   64
 Side 2  free  transition at x/c =  0.1830   40

  15   rms: 0.5716E-01   max: -.3174E+00   T at   40  2
       a =  2.000      CL =  1.1888
      Cm = -0.2269     CD =  0.02534   =>   CDf =  0.00567    CDp =  0.01967

 Side 1  free  transition at x/c =  0.5630   64
 Side 2  free  transition at x/c =  0.1869   40

  16   rms: 0.4044E-01   max: 0.2923E+00   T at   40  2
       a =  2.000      CL =  1.1618
      Cm = -0.2192     CD =  0.02713   =>   CDf =  0.00579    CDp =  0.02135

 Side 1  free  transition at x/c =  0.5633   64
 Side 2  free  transition at x/c =  0.1830   40

  17   rms: 0.5638E-01   max: -.3126E+00   T at   40  2
       a =  2.000      CL =  1.1879
      Cm = -0.2266     CD =  0.02540   =>   CDf =  0.00567    CDp =  0.01972

 Side 1  free  transition at x/c =  0.5630   64
 Side 2  free  transition at x/c =  0.1867   40

  18   rms: 0.4227E-01   max: 0.3000E+00   T at   40  2
       a =  2.000      CL =  1.1599
      Cm = -0.2187     CD =  0.02725   =>   CDf =  0.00578    CDp =  0.02147

 Side 1  free  transition at x/c =  0.5633   64
 Side 2  free  transition at x/c =  0.1827   40

  19   rms: 0.5338E-01   max: -.2948E+00   T at   40  2
       a =  2.000      CL =  1.1841
      Cm = -0.2255     CD =  0.02562   =>   CDf =  0.00566    CDp =  0.01996

 Side 1  free  transition at x/c =  0.5630   64
 Side 2  free  transition at x/c =  0.1862   40

  20   rms: 0.5421E-01   max: 0.3641E+00   T at   40  2
       a =  2.000      CL =  1.1495
      Cm = -0.2158     CD =  0.02787   =>   CDf =  0.00595    CDp =  0.02193

 Side 1  free  transition at x/c =  0.5635   63
 Side 2  free  transition at x/c =  0.1814   41

  21   rms: 0.5132E-01   max: -.2806E+00   T at   41  2
       a =  2.000      CL =  1.1696
      Cm = -0.2215     CD =  0.02643   =>   CDf =  0.00543    CDp =  0.02100

 Side 1  free  transition at x/c =  0.5632   64
 Side 2  free  transition at x/c =  0.1841   40

  22   rms: 0.1385E+00   max: -.8312E+00   T at   40  2   RLX: 0.602
       a =  2.000      CL =  1.2141
      Cm = -0.2340     CD =  0.02394   =>   CDf =  0.00571    CDp =  0.01823

 Side 1  free  transition at x/c =  0.5626   64
 Side 2  free  transition at x/c =  0.1908   40

  23   rms: 0.6685E-01   max: 0.3615E+00   T at   40  2
       a =  2.000      CL =  1.2024
      Cm = -0.2308     CD =  0.02425   =>   CDf =  0.00586    CDp =  0.01839

 Side 1  free  transition at x/c =  0.5629   64
 Side 2  free  transition at x/c =  0.1888   40

  24   rms: 0.2692E-01   max: 0.3011E+00   T at   40  2
       a =  2.000      CL =  1.1776
      Cm = -0.2236     CD =  0.02618   =>   CDf =  0.00580    CDp =  0.02038

 Side 1  free  transition at x/c =  0.5631   64
 Side 2  free  transition at x/c =  0.1852   40

  25   rms: 0.2465E+00   max: 0.1520E+01   T at   40  2   RLX: 0.987
       a =  2.000      CL =  1.0310
      Cm = -0.1825     CD =  0.03500   =>   CDf =  0.00591    CDp =  0.02909
 VISCAL:  Convergence failed
 Calculating wake trajectory ...
 Calculating source influence matrix ...

 Solving BL system ...

 Side 1  free  transition at x/c =  0.5650   63
 Side 2  free  transition at x/c =  0.1779   40

   1   rms: 0.2539E+00   max: 0.3468E+01   T at   40  2   RLX: 0.259
       a =  3.000      CL =  1.0254
      Cm = -0.1750     CD =  0.03617   =>   CDf =  0.00530    CDp =  0.03087

 Side 1  free  transition at x/c =  0.5593   63
 Side 2  free  transition at x/c =  0.1753   40

   2   rms: 0.2970E+00   max: -.1264E+01   T at   40  2   RLX: 0.396
       a =  3.000      CL =  1.1233
      Cm = -0.1948     CD =  0.03239   =>   CDf =  0.00506    CDp =  0.02733

 Side 1  free  transition at x/c =  0.5529   63
 Side 2  free  transition at x/c =  0.1851   40

   3   rms: 0.1494E+00   max: -.5621E+00   D at   79  2   RLX: 0.890
       a =  3.000      CL =  1.2401
      Cm = -0.2178     CD =  0.02541   =>   CDf =  0.00546    CDp =  0.01995

 Side 1  free  transition at x/c =  0.5388   64
 Side 2  free  transition at x/c =  0.1953   40

   4   rms: 0.1239E+00   max: -.7559E+00   T at   40  2   RLX: 0.661
       a =  3.000      CL =  1.3104
      Cm = -0.2331     CD =  0.02295   =>   CDf =  0.00605    CDp =  0.01691

 Side 1  free  transition at x/c =  0.5384   64
 Side 2  free  transition at x/c =  0.2028   40

   5   rms: 0.8345E-01   max: 0.6677E+00   T at   40  2
       a =  3.000      CL =  1.2866
      Cm = -0.2260     CD =  0.02487   =>   CDf =  0.00616    CDp =  0.01871

 Side 1  free  transition at x/c =  0.5388   64
 Side 2  free  transition at x/c =  0.1963   40

   6   rms: 0.1417E+00   max: -.6216E+00   T at   40  2   RLX: 0.804
       a =  3.000      CL =  1.3319
      Cm = -0.2378     CD =  0.02297   =>   CDf =  0.00585    CDp =  0.01712

 Side 1  free  transition at x/c =  0.5380   64
 Side 2  free  transition at x/c =  0.2037   40

   7   rms: 0.6286E-01   max: 0.6095E+00   T at   40  2
       a =  3.000      CL =  1.3029
      Cm = -0.2303     CD =  0.02372   =>   CDf =  0.00614    CDp =  0.01758

 Side 1  free  transition at x/c =  0.5386   64
 Side 2  free  transition at x/c =  0.1983   40

   8   rms: 0.5829E+00   max: -.2934E+01   T at   40  2   RLX: 0.170
       a =  3.000      CL =  1.3435
      Cm = -0.2415     CD =  0.02329   =>   CDf =  0.00590    CDp =  0.01739

 Side 1  free  transition at x/c =  0.5378   64
 Side 2  free  transition at x/c =  0.2078   41

   9   rms: 0.1186E+00   max: -.5239E+00   D at   44  2   RLX: 0.954
       a =  3.000      CL =  1.3715
      Cm = -0.2480     CD =  0.02060   =>   CDf =  0.00634    CDp =  0.01426

 Side 1  free  transition at x/c =  0.5374   64
 Side 2  free  transition at x/c =  0.2126   41

  10   rms: 0.4205E-01   max: -.2033E+00   D at   45  2
       a =  3.000      CL =  1.3768
      Cm = -0.2493     CD =  0.02024   =>   CDf =  0.00675    CDp =  0.01350

 Side 1  free  transition at x/c =  0.5374   64
 Side 2  free  transition at x/c =  0.2148   41

  11   rms: 0.1086E-02   max: -.1059E-01   D at   45  2
       a =  3.000      CL =  1.3762
      Cm = -0.2491     CD =  0.02029   =>   CDf =  0.00688    CDp =  0.01340

 Side 1  free  transition at x/c =  0.5374   64
 Side 2  free  transition at x/c =  0.2147   41

  12   rms: 0.1467E-04   max: -.1147E-03   D at   45  2
       a =  3.000      CL =  1.3762
      Cm = -0.2491     CD =  0.02029   =>   CDf =  0.00688    CDp =  0.01340

 Point added to stored polar  1
 Point written to save file  000069M0.1.log                                  
 Dump file unspecified or not available
 Calculating wake trajectory ...
 Calculating source influence matrix ...

 Solving BL system ...

 Side 1  free  transition at x/c =  0.5374   64
 Side 2  free  transition at x/c =  0.2147   41

   1   rms: 0.1409E+00   max: -.6914E+00   T at   41  2   RLX: 0.723
       a =  4.000      CL =  1.4587
      Cm = -0.2492     CD =  0.02048   =>   CDf =  0.00666    CDp =  0.01383

 Side 1  free  transition at x/c =  0.5217   64
 Side 2  free  transition at x/c =  0.2267   41

   2   rms: 0.6126E-01   max: 0.4368E+00   D at   41  2
       a =  4.000      CL =  1.4596
      Cm = -0.2440     CD =  0.02094   =>   CDf =  0.00713    CDp =  0.01381

 Side 1  free  transition at x/c =  0.5125   64
 Side 2  free  transition at x/c =  0.2265   41

   3   rms: 0.1436E-01   max: -.8361E-01   D at   84  1
       a =  4.000      CL =  1.4681
      Cm = -0.2455     CD =  0.02105   =>   CDf =  0.00681    CDp =  0.01424

 Side 1  free  transition at x/c =  0.5129   65
 Side 2  free  transition at x/c =  0.2267   40

   4   rms: 0.5283E-03   max: -.4027E-02   D at   83  2
       a =  4.000      CL =  1.4682
      Cm = -0.2455     CD =  0.02107   =>   CDf =  0.00705    CDp =  0.01401

 Side 1  free  transition at x/c =  0.5129   65
 Side 2  free  transition at x/c =  0.2267   40

   5   rms: 0.9208E-05   max: -.9927E-04   D at    4  1
       a =  4.000      CL =  1.4682
      Cm = -0.2455     CD =  0.02107   =>   CDf =  0.00705    CDp =  0.01401

 Point added to stored polar  1
 Point written to save file  000069M0.1.log                                  
 Dump file unspecified or not available
 Calculating wake trajectory ...
 Calculating source influence matrix ...

 Solving BL system ...

 Side 1  free  transition at x/c =  0.5129   65
 Side 2  free  transition at x/c =  0.2267   40

   1   rms: 0.1325E+00   max: -.6056E+00   T at   40  2   RLX: 0.826
       a =  5.000      CL =  1.5641
      Cm = -0.2453     CD =  0.02197   =>   CDf =  0.00681    CDp =  0.01516

 Side 1  free  transition at x/c =  0.4936   65
 Side 2  free  transition at x/c =  0.2367   39

   2   rms: 0.1138E+00   max: -.4824E+00   D at   41  2
       a =  5.000      CL =  1.5487
      Cm = -0.2400     CD =  0.02214   =>   CDf =  0.00698    CDp =  0.01516

 MRCHDU: Convergence failed at  40  side 2    Res =  0.7941E+01
 MRCHDU: Convergence failed at  41  side 2    Res =  0.9863E+01
 MRCHDU: Convergence failed at  42  side 2    Res =  0.1612E+02
 MRCHDU: Convergence failed at  43  side 2    Res =  0.3459E+02
 MRCHDU: Convergence failed at  44  side 2    Res =  0.5321E+02
 MRCHDU: Convergence failed at  45  side 2    Res =  0.4446E+02
 MRCHDU: Convergence failed at  46  side 2    Res =  0.3144E+02
 MRCHDU: Convergence failed at  47  side 2    Res =  0.2470E+02
 MRCHDU: Convergence failed at  48  side 2    Res =  0.1913E+02
 MRCHDU: Convergence failed at  49  side 2    Res =  0.2313E+02
 MRCHDU: Convergence failed at  50  side 2    Res =  0.2575E+02
 MRCHDU: Convergence failed at  51  side 2    Res =  0.2862E+02
 MRCHDU: Convergence failed at  52  side 2    Res =  0.3041E+02
 MRCHDU: Convergence failed at  53  side 2    Res =  0.3249E+02
 MRCHDU: Convergence failed at  54  side 2    Res =  0.3399E+02
 MRCHDU: Convergence failed at  55  side 2    Res =  0.3481E+02
 MRCHDU: Convergence failed at  56  side 2    Res =  0.3494E+02
 MRCHDU: Convergence failed at  57  side 2    Res =  0.3342E+02
 MRCHDU: Convergence failed at  58  side 2    Res =  0.3251E+02
 MRCHDU: Convergence failed at  59  side 2    Res =  0.2993E+02
 MRCHDU: Convergence failed at  60  side 2    Res =  0.2723E+02
 MRCHDU: Convergence failed at  61  side 2    Res =  0.2675E+02
 MRCHDU: Convergence failed at  62  side 2    Res =  0.2439E+02
 MRCHDU: Convergence failed at  63  side 2    Res =  0.2240E+02
 MRCHDU: Convergence failed at  64  side 2    Res =  0.2575E+02
 MRCHDU: Convergence failed at  65  side 2    Res =  0.2885E+02
 MRCHDU: Convergence failed at  66  side 2    Res =  0.1367E+03
 MRCHDU: Convergence failed at  67  side 2    Res =  0.4302E+02
 MRCHDU: Convergence failed at  68  side 2    Res =  0.6064E+02
 MRCHDU: Convergence failed at  69  side 2    Res =  0.1082E+03
 MRCHDU: Convergence failed at  70  side 2    Res =  0.5328E+04
 MRCHDU: Convergence failed at  71  side 2    Res =  0.1009E+03
 MRCHDU: Convergence failed at  72  side 2    Res =  0.5245E+02
 MRCHDU: Convergence failed at  73  side 2    Res =  0.4060E+02
 MRCHDU: Convergence failed at  74  side 2    Res =  0.5630E+02
 MRCHDU: Convergence failed at  75  side 2    Res =  0.7507E+01
 Side 1  free  transition at x/c =  0.4902   65
 Side 2  free  transition at x/c =  0.2433   40

   3   rms: 0.9729E+00   max: 0.3826E+01   D at   51  2   RLX: 0.392
       a =  5.000      CL =  1.1490
      Cm = -0.1177     CD =  0.02067   =>   CDf =  0.00576    CDp =  0.01491

 Side 1  free  transition at x/c =  0.4950   64
 Side 2  free  transition at x/c =  0.2250   40

   4   rms: 0.2173E+00   max: -.8177E+00   D at   76  2   RLX: 0.611
       a =  5.000      CL =  1.3909
      Cm = -0.1987     CD =  0.02772   =>   CDf =  0.00588    CDp =  0.02184

 Side 1  free  transition at x/c =  0.4922   64
 Side 2  free  transition at x/c =  0.2238   40

   5   rms: 0.1965E+00   max: -.8736E+00   D at   70  2   RLX: 0.572
       a =  5.000      CL =  1.4986
      Cm = -0.2266     CD =  0.02618   =>   CDf =  0.00574    CDp =  0.02044

 Side 1  free  transition at x/c =  0.4894   65
 Side 2  free  transition at x/c =  0.2287   39

   6   rms: 0.5878E+00   max: -.3508E+01   T at   39  2   RLX: 0.143
       a =  5.000      CL =  1.5396
      Cm = -0.2367     CD =  0.02484   =>   CDf =  0.00634    CDp =  0.01850

 Side 1  free  transition at x/c =  0.4885   64
 Side 2  free  transition at x/c =  0.2384   40

   7   rms: 0.1141E+00   max: -.9189E+00   D at   70  2   RLX: 0.544
       a =  5.000      CL =  1.5538
      Cm = -0.2405     CD =  0.02266   =>   CDf =  0.00708    CDp =  0.01558

 Side 1  free  transition at x/c =  0.4882   64
 Side 2  free  transition at x/c =  0.2400   40

   8   rms: 0.6588E-01   max: -.6027E+00   D at   70  2   RLX: 0.830
       a =  5.000      CL =  1.5557
      Cm = -0.2415     CD =  0.02236   =>   CDf =  0.00713    CDp =  0.01523

 Side 1  free  transition at x/c =  0.4881   64
 Side 2  free  transition at x/c =  0.2407   40

   9   rms: 0.1578E-01   max: -.1790E+00   D at   70  2
       a =  5.000      CL =  1.5539
      Cm = -0.2411     CD =  0.02232   =>   CDf =  0.00720    CDp =  0.01512

 Side 1  free  transition at x/c =  0.4882   64
 Side 2  free  transition at x/c =  0.2402   40

  10   rms: 0.6280E-03   max: -.7146E-02   D at   70  2
       a =  5.000      CL =  1.5537
      Cm = -0.2410     CD =  0.02233   =>   CDf =  0.00724    CDp =  0.01509

 Side 1  free  transition at x/c =  0.4882   64
 Side 2  free  transition at x/c =  0.2402   40

  11   rms: 0.5150E-05   max: -.5887E-04   D at   43  2
       a =  5.000      CL =  1.5537
      Cm = -0.2410     CD =  0.02233   =>   CDf =  0.00724    CDp =  0.01509

 Point added to stored polar  1
 Point written to save file  000069M0.1.log                                  
 Dump file unspecified or not available
 Calculating wake trajectory ...
 Calculating source influence matrix ...

 Solving BL system ...

 Side 1  free  transition at x/c =  0.4882   64
 Side 2  free  transition at x/c =  0.2402   40

   1   rms: 0.1157E+00   max: -.5705E+00   T at   40  2   RLX: 0.876
       a =  6.000      CL =  1.5936
      Cm = -0.2320     CD =  0.02425   =>   CDf =  0.00698    CDp =  0.01727

 Side 1  free  transition at x/c =  0.4648   64
 Side 2  free  transition at x/c =  0.2493   39

   2   rms: 0.7864E-01   max: -.3077E+00   D at   43  2
       a =  6.000      CL =  1.6191
      Cm = -0.2339     CD =  0.02439   =>   CDf =  0.00709    CDp =  0.01730

 Side 1  free  transition at x/c =  0.4641   64
 Side 2  free  transition at x/c =  0.2535   39

   3   rms: 0.5136E-02   max: 0.2607E-01   T at   39  2
       a =  6.000      CL =  1.6215
      Cm = -0.2341     CD =  0.02441   =>   CDf =  0.00717    CDp =  0.01724

 Side 1  free  transition at x/c =  0.4636   64
 Side 2  free  transition at x/c =  0.2529   39

   4   rms: 0.2129E-03   max: 0.1561E-02   D at   40  2
       a =  6.000      CL =  1.6214
      Cm = -0.2340     CD =  0.02442   =>   CDf =  0.00719    CDp =  0.01723

 Side 1  free  transition at x/c =  0.4636   64
 Side 2  free  transition at x/c =  0.2529   39

   5   rms: 0.2289E-05   max: -.1340E-04   T at   39  2
       a =  6.000      CL =  1.6214
      Cm = -0.2340     CD =  0.02442   =>   CDf =  0.00719    CDp =  0.01723

 Point added to stored polar  1
 Point written to save file  000069M0.1.log                                  
 Dump file unspecified or not available
 Calculating wake trajectory ...
 Calculating source influence matrix ...

 Solving BL system ...

 Side 1  free  transition at x/c =  0.4636   64
 Side 2  free  transition at x/c =  0.2529   39

   1   rms: 0.1200E+00   max: -.6197E+00   T at   39  2   RLX: 0.807
       a =  7.000      CL =  1.6643
      Cm = -0.2274     CD =  0.02663   =>   CDf =  0.00692    CDp =  0.01971

 Side 1  free  transition at x/c =  0.4426   64
 Side 2  free  transition at x/c =  0.2665   39

   2   rms: 0.7240E-01   max: 0.7562E+00   D at   39  2
       a =  7.000      CL =  1.6802
      Cm = -0.2267     CD =  0.02716   =>   CDf =  0.00739    CDp =  0.01977

 Side 1  free  transition at x/c =  0.4393   64
 Side 2  free  transition at x/c =  0.2668   39

   3   rms: 0.1101E-01   max: 0.7184E-01   D at   40  2
       a =  7.000      CL =  1.6849
      Cm = -0.2273     CD =  0.02701   =>   CDf =  0.00716    CDp =  0.01985

 Side 1  free  transition at x/c =  0.4390   64
 Side 2  free  transition at x/c =  0.2662   39

   4   rms: 0.3131E-03   max: 0.2832E-02   D at   40  2
       a =  7.000      CL =  1.6851
      Cm = -0.2273     CD =  0.02701   =>   CDf =  0.00716    CDp =  0.01985

 Side 1  free  transition at x/c =  0.4390   64
 Side 2  free  transition at x/c =  0.2662   39

   5   rms: 0.3569E-05   max: 0.3631E-04   D at   40  2
       a =  7.000      CL =  1.6851
      Cm = -0.2273     CD =  0.02701   =>   CDf =  0.00716    CDp =  0.01985

 Point added to stored polar  1
 Point written to save file  000069M0.1.log                                  
 Dump file unspecified or not available
 Calculating wake trajectory ...
 Calculating source influence matrix ...

 Solving BL system ...

 Side 1  free  transition at x/c =  0.4390   64
 Side 2  free  transition at x/c =  0.2662   39

   1   rms: 0.1127E+00   max: -.5020E+00   T at   39  2   RLX: 0.814
       a =  8.000      CL =  1.7260
      Cm = -0.2207     CD =  0.02979   =>   CDf =  0.00688    CDp =  0.02291

 Side 1  free  transition at x/c =  0.4194   64
 Side 2  free  transition at x/c =  0.2759   38

   2   rms: 0.5611E-01   max: -.2830E+00   D at   39  2
       a =  8.000      CL =  1.7354
      Cm = -0.2195     CD =  0.03065   =>   CDf =  0.00722    CDp =  0.02343

 Side 1  free  transition at x/c =  0.4148   64
 Side 2  free  transition at x/c =  0.2812   39

   3   rms: 0.3150E-01   max: 0.3015E+00   D at   39  2
       a =  8.000      CL =  1.7443
      Cm = -0.2208     CD =  0.03026   =>   CDf =  0.00726    CDp =  0.02300

 Side 1  free  transition at x/c =  0.4147   64
 Side 2  free  transition at x/c =  0.2818   39

   4   rms: 0.7281E-02   max: 0.6238E-01   D at   39  2
       a =  8.000      CL =  1.7442
      Cm = -0.2207     CD =  0.03028   =>   CDf =  0.00723    CDp =  0.02305

 Side 1  free  transition at x/c =  0.4147   64
 Side 2  free  transition at x/c =  0.2814   39

   5   rms: 0.6983E-04   max: -.6043E-03   D at   39  2
       a =  8.000      CL =  1.7442
      Cm = -0.2207     CD =  0.03028   =>   CDf =  0.00722    CDp =  0.02305

 Point added to stored polar  1
 Point written to save file  000069M0.1.log                                  
 Dump file unspecified or not available
 Calculating wake trajectory ...
 Calculating source influence matrix ...

 Solving BL system ...

 Side 1  free  transition at x/c =  0.4147   64
 Side 2  free  transition at x/c =  0.2814   39

   1   rms: 0.1181E+00   max: -.6909E+00   T at   39  2   RLX: 0.724
       a =  9.000      CL =  1.7850
      Cm = -0.2159     CD =  0.03288   =>   CDf =  0.00693    CDp =  0.02595

 Side 1  free  transition at x/c =  0.3987   64
 Side 2  free  transition at x/c =  0.2918   38

   2   rms: 0.6779E-01   max: -.3282E+00   D at   38  2
       a =  9.000      CL =  1.7864
      Cm = -0.2128     CD =  0.03476   =>   CDf =  0.00713    CDp =  0.02763

 Side 1  free  transition at x/c =  0.3906   64
 Side 2  free  transition at x/c =  0.2965   38

   3   rms: 0.1128E-01   max: -.6948E-01   D at   83  1
       a =  9.000      CL =  1.7941
      Cm = -0.2135     CD =  0.03440   =>   CDf =  0.00721    CDp =  0.02719

 Side 1  free  transition at x/c =  0.3911   64
 Side 2  free  transition at x/c =  0.2967   38

   4   rms: 0.8583E-03   max: -.4173E-02   D at   83  1
       a =  9.000      CL =  1.7949
      Cm = -0.2136     CD =  0.03439   =>   CDf =  0.00720    CDp =  0.02719

 Side 1  free  transition at x/c =  0.3911   64
 Side 2  free  transition at x/c =  0.2967   38

   5   rms: 0.1932E-04   max: 0.1984E-03   D at   39  2
       a =  9.000      CL =  1.7949
      Cm = -0.2136     CD =  0.03439   =>   CDf =  0.00721    CDp =  0.02719

 Point added to stored polar  1
 Point written to save file  000069M0.1.log                                  
 Dump file unspecified or not available
 Calculating wake trajectory ...
 Calculating source influence matrix ...

 Solving BL system ...

 Side 1  free  transition at x/c =  0.3911   64
 Side 2  free  transition at x/c =  0.2967   38

   1   rms: 0.1162E+00   max: -.6094E+00   T at   38  2   RLX: 0.665
       a = 10.000      CL =  1.8307
      Cm = -0.2093     CD =  0.03724   =>   CDf =  0.00691    CDp =  0.03033

 Side 1  free  transition at x/c =  0.3777   64
 Side 2  free  transition at x/c =  0.3088   38

   2   rms: 0.5064E-01   max: 0.4186E+00   D at   38  2
       a = 10.000      CL =  1.8326
      Cm = -0.2063     CD =  0.03976   =>   CDf =  0.00725    CDp =  0.03251

 Side 1  free  transition at x/c =  0.3675   64
 Side 2  free  transition at x/c =  0.3122   38

   3   rms: 0.1360E-01   max: -.8444E-01   D at   83  1
       a = 10.000      CL =  1.8401
      Cm = -0.2069     CD =  0.03925   =>   CDf =  0.00724    CDp =  0.03202

 Side 1  free  transition at x/c =  0.3682   64
 Side 2  free  transition at x/c =  0.3125   38

   4   rms: 0.1436E-02   max: -.7187E-02   D at   82  1
       a = 10.000      CL =  1.8415
      Cm = -0.2070     CD =  0.03923   =>   CDf =  0.00722    CDp =  0.03201

 Side 1  free  transition at x/c =  0.3681   64
 Side 2  free  transition at x/c =  0.3125   38

   5   rms: 0.3219E-04   max: -.2139E-03   D at   80  2
       a = 10.000      CL =  1.8415
      Cm = -0.2070     CD =  0.03923   =>   CDf =  0.00722    CDp =  0.03201

 Point added to stored polar  1
 Point written to save file  000069M0.1.log                                  
 Dump file unspecified or not available
 Calculating wake trajectory ...
 Calculating source influence matrix ...

 Solving BL system ...

 Side 1  free  transition at x/c =  0.3681   64
 Side 2  free  transition at x/c =  0.3125   38

   1   rms: 0.1163E+00   max: -.5791E+00   T at   38  2   RLX: 0.611
       a = 11.000      CL =  1.8821
      Cm = -0.2038     CD =  0.04146   =>   CDf =  0.00692    CDp =  0.03454

 Side 1  free  transition at x/c =  0.3555   64
 Side 2  free  transition at x/c =  0.3235   37

   2   rms: 0.6199E-01   max: -.3343E+00   D at   64  1
       a = 11.000      CL =  1.8707
      Cm = -0.1997     CD =  0.04573   =>   CDf =  0.00719    CDp =  0.03854

 Side 1  free  transition at x/c =  0.3465   63
 Side 2  free  transition at x/c =  0.3291   38

   3   rms: 0.2046E-01   max: 0.1833E+00   D at   38  2
       a = 11.000      CL =  1.8813
      Cm = -0.2006     CD =  0.04499   =>   CDf =  0.00724    CDp =  0.03775

 Side 1  free  transition at x/c =  0.3461   63
 Side 2  free  transition at x/c =  0.3304   38

   4   rms: 0.4557E-02   max: 0.4682E-01   D at   38  2
       a = 11.000      CL =  1.8824
      Cm = -0.2007     CD =  0.04501   =>   CDf =  0.00721    CDp =  0.03780

 Side 1  free  transition at x/c =  0.3460   63
 Side 2  free  transition at x/c =  0.3301   38

   5   rms: 0.2311E-04   max: 0.1813E-03   T at   38  2
       a = 11.000      CL =  1.8824
      Cm = -0.2007     CD =  0.04502   =>   CDf =  0.00722    CDp =  0.03780

 Point added to stored polar  1
 Point written to save file  000069M0.1.log                                  
 Dump file unspecified or not available
 Calculating wake trajectory ...
 Calculating source influence matrix ...

 Solving BL system ...

 Side 1  free  transition at x/c =  0.3460   63
 Side 2  free  transition at x/c =  0.3301   38

   1   rms: 0.1179E+00   max: -.6159E+00   T at   38  2   RLX: 0.528
       a = 12.000      CL =  1.8933
      Cm = -0.1974     CD =  0.04949   =>   CDf =  0.00691    CDp =  0.04257

 Side 1  free  transition at x/c =  0.3331   64
 Side 2  free  transition at x/c =  0.3390   37

   2   rms: 0.5404E-01   max: -.2881E+00   D at   64  1
       a = 12.000      CL =  1.9163
      Cm = -0.1947     CD =  0.05193   =>   CDf =  0.00709    CDp =  0.04484

 Side 1  free  transition at x/c =  0.3259   63
 Side 2  free  transition at x/c =  0.3478   37

   3   rms: 0.1652E-01   max: -.1162E+00   D at   38  2
       a = 12.000      CL =  1.9120
      Cm = -0.1945     CD =  0.05227   =>   CDf =  0.00711    CDp =  0.04516

 Side 1  free  transition at x/c =  0.3248   63
 Side 2  free  transition at x/c =  0.3482   37

   4   rms: 0.1274E-02   max: -.6384E-02   D at   82  1
       a = 12.000      CL =  1.9130
      Cm = -0.1946     CD =  0.05218   =>   CDf =  0.00707    CDp =  0.04511

 Side 1  free  transition at x/c =  0.3248   63
 Side 2  free  transition at x/c =  0.3482   37

   5   rms: 0.4227E-04   max: -.3199E-03   D at   80  2
       a = 12.000      CL =  1.9130
      Cm = -0.1946     CD =  0.05219   =>   CDf =  0.00707    CDp =  0.04511

 Point added to stored polar  1
 Point written to save file  000069M0.1.log                                  
 Dump file unspecified or not available
 Calculating wake trajectory ...
 Calculating source influence matrix ...

 Solving BL system ...

 Side 1  free  transition at x/c =  0.3248   63
 Side 2  free  transition at x/c =  0.3482   37

   1   rms: 0.1130E+00   max: -.5382E+00   T at   37  2   RLX: 0.478
       a = 13.000      CL =  1.9200
      Cm = -0.1918     CD =  0.05695   =>   CDf =  0.00710    CDp =  0.04985

 Side 1  free  transition at x/c =  0.3134   63
 Side 2  free  transition at x/c =  0.3576   38

   2   rms: 0.6200E-01   max: 0.4924E+00   D at   38  2
       a = 13.000      CL =  1.9501
      Cm = -0.1894     CD =  0.05909   =>   CDf =  0.00674    CDp =  0.05234

 Side 1  free  transition at x/c =  0.3062   63
 Side 2  free  transition at x/c =  0.3679   37

   3   rms: 0.1749E-01   max: -.8703E-01   D at   63  1
       a = 13.000      CL =  1.9363
      Cm = -0.1891     CD =  0.06069   =>   CDf =  0.00698    CDp =  0.05370

 Side 1  free  transition at x/c =  0.3044   63
 Side 2  free  transition at x/c =  0.3667   37

   4   rms: 0.2928E-02   max: -.2079E-01   D at   81  1
       a = 13.000      CL =  1.9387
      Cm = -0.1892     CD =  0.06028   =>   CDf =  0.00691    CDp =  0.05337

 Side 1  free  transition at x/c =  0.3044   63
 Side 2  free  transition at x/c =  0.3670   37

   5   rms: 0.1788E-03   max: -.1134E-02   D at   80  2
       a = 13.000      CL =  1.9389
      Cm = -0.1892     CD =  0.06030   =>   CDf =  0.00692    CDp =  0.05339

 Side 1  free  transition at x/c =  0.3044   63
 Side 2  free  transition at x/c =  0.3670   37

   6   rms: 0.4158E-05   max: -.3544E-04   D at   80  2
       a = 13.000      CL =  1.9389
      Cm = -0.1892     CD =  0.06030   =>   CDf =  0.00692    CDp =  0.05339

 Point added to stored polar  1
 Point written to save file  000069M0.1.log                                  
 Dump file unspecified or not available
 Calculating wake trajectory ...
 Calculating source influence matrix ...

 Solving BL system ...

 Side 1  free  transition at x/c =  0.3044   63
 Side 2  free  transition at x/c =  0.3670   37

   1   rms: 0.1077E+00   max: -.5261E+00   T at   37  2   RLX: 0.439
       a = 14.000      CL =  1.9468
      Cm = -0.1870     CD =  0.06470   =>   CDf =  0.00694    CDp =  0.05776

 Side 1  free  transition at x/c =  0.2947   63
 Side 2  free  transition at x/c =  0.3746   37

   2   rms: 0.6431E-01   max: -.4438E+00   T at   37  2
       a = 14.000      CL =  1.9770
      Cm = -0.1842     CD =  0.06718   =>   CDf =  0.00667    CDp =  0.06052

 MRCHDU: Convergence failed at  38  side 2    Res =  0.3848E+01
 MRCHDU: Convergence failed at  39  side 2    Res =  0.6667E+01
 MRCHDU: Convergence failed at  40  side 2    Res =  0.6671E+01
 MRCHDU: Convergence failed at  41  side 2    Res =  0.3622E+01
 MRCHDU: Convergence failed at  42  side 2    Res =  0.5338E+01
 MRCHDU: Convergence failed at  43  side 2    Res =  0.6225E+01
 MRCHDU: Convergence failed at  44  side 2    Res =  0.6819E+01
 MRCHDU: Convergence failed at  45  side 2    Res =  0.7146E+01
 MRCHDU: Convergence failed at  46  side 2    Res =  0.7275E+01
 MRCHDU: Convergence failed at  47  side 2    Res =  0.7229E+01
 MRCHDU: Convergence failed at  48  side 2    Res =  0.7042E+01
 MRCHDU: Convergence failed at  49  side 2    Res =  0.6713E+01
 MRCHDU: Convergence failed at  50  side 2    Res =  0.6239E+01
 MRCHDU: Convergence failed at  51  side 2    Res =  0.5586E+01
 MRCHDU: Convergence failed at  52  side 2    Res =  0.4751E+01
 MRCHDU: Convergence failed at  53  side 2    Res =  0.3794E+01
 MRCHDU: Convergence failed at  54  side 2    Res =  0.8572E+01
 MRCHDU: Convergence failed at  55  side 2    Res =  0.7592E+01
 MRCHDU: Convergence failed at  56  side 2    Res =  0.9080E+01
 Side 1  free  transition at x/c =  0.2868   63
 Side 2  free  transition at x/c =  0.3941   37

   3   rms: 0.1639E+00   max: 0.1602E+01   T at   37  2   RLX: 0.572
       a = 14.000      CL =  1.9430
      Cm = -0.1773     CD =  0.06844   =>   CDf =  0.00620    CDp =  0.06224

 MRCHDU: Convergence failed at  47  side 2    Res =  0.4041E-01
 Side 1  free  transition at x/c =  0.2860   63
 Side 2  free  transition at x/c =  0.3703   36

   4   rms: 0.1968E+00   max: -.1137E+01   T at   36  2   RLX: 0.440
       a = 14.000      CL =  1.9660
      Cm = -0.1851     CD =  0.06957   =>   CDf =  0.00636    CDp =  0.06321

 Side 1  free  transition at x/c =  0.2854   63
 Side 2  free  transition at x/c =  0.3896   37

   5   rms: 0.1823E+00   max: -.1240E+01   D at   43  2   RLX: 0.403
       a = 14.000      CL =  1.9662
      Cm = -0.1855     CD =  0.06926   =>   CDf =  0.00650    CDp =  0.06276

 Side 1  free  transition at x/c =  0.2851   63
 Side 2  free  transition at x/c =  0.3962   37

   6   rms: 0.2246E+00   max: -.1599E+01   D at   51  2   RLX: 0.313
       a = 14.000      CL =  1.9680
      Cm = -0.1857     CD =  0.06921   =>   CDf =  0.00651    CDp =  0.06270

 Side 1  free  transition at x/c =  0.2850   63
 Side 2  free  transition at x/c =  0.3985   37

   7   rms: 0.1497E+00   max: -.1426E+01   D at   51  2   RLX: 0.351
       a = 14.000      CL =  1.9668
      Cm = -0.1855     CD =  0.06932   =>   CDf =  0.00665    CDp =  0.06267

 MRCHDU: Convergence failed at  49  side 2    Res =  0.4822E+00
 Side 1  free  transition at x/c =  0.2849   63
 Side 2  free  transition at x/c =  0.3962   37

   8   rms: 0.9615E-01   max: -.8700E+00   D at   53  2   RLX: 0.575
       a = 14.000      CL =  1.9622
      Cm = -0.1844     CD =  0.06934   =>   CDf =  0.00678    CDp =  0.06256

 Side 1  free  transition at x/c =  0.2849   63
 Side 2  free  transition at x/c =  0.3913   37

   9   rms: 0.5173E-01   max: -.5025E+00   D at   53  2   RLX: 0.995
       a = 14.000      CL =  1.9606
      Cm = -0.1845     CD =  0.06930   =>   CDf =  0.00676    CDp =  0.06254

 Side 1  free  transition at x/c =  0.2849   63
 Side 2  free  transition at x/c =  0.3870   37

  10   rms: 0.4734E-02   max: -.7491E-01   D at   53  2
       a = 14.000      CL =  1.9603
      Cm = -0.1844     CD =  0.06929   =>   CDf =  0.00678    CDp =  0.06251

 Side 1  free  transition at x/c =  0.2850   63
 Side 2  free  transition at x/c =  0.3868   37

  11   rms: 0.7452E-04   max: -.1332E-02   D at   53  2
       a = 14.000      CL =  1.9603
      Cm = -0.1844     CD =  0.06929   =>   CDf =  0.00678    CDp =  0.06250

 Point added to stored polar  1
 Point written to save file  000069M0.1.log                                  
 Dump file unspecified or not available
 Calculating wake trajectory ...
 Calculating source influence matrix ...

 Solving BL system ...

 Side 1  free  transition at x/c =  0.2850   63
 Side 2  free  transition at x/c =  0.3868   37

   1   rms: 0.1067E+00   max: -.5401E+00   T at   37  2   RLX: 0.401
       a = 15.000      CL =  1.9648
      Cm = -0.1828     CD =  0.07390   =>   CDf =  0.00681    CDp =  0.06709

 Side 1  free  transition at x/c =  0.2770   63
 Side 2  free  transition at x/c =  0.3948   37

   2   rms: 0.7136E-01   max: -.5064E+00   T at   37  2   RLX: 0.987
       a = 15.000      CL =  2.0035
      Cm = -0.1801     CD =  0.07543   =>   CDf =  0.00652    CDp =  0.06890

 MRCHDU: Convergence failed at  38  side 2    Res =  0.3707E+01
 MRCHDU: Convergence failed at  39  side 2    Res =  0.1042E+02
 MRCHDU: Convergence failed at  40  side 2    Res =  0.6312E+01
 MRCHDU: Convergence failed at  41  side 2    Res =  0.7400E+01
 MRCHDU: Convergence failed at  42  side 2    Res =  0.3997E+01
 MRCHDU: Convergence failed at  43  side 2    Res =  0.4762E+01
 MRCHDU: Convergence failed at  44  side 2    Res =  0.5146E+01
 MRCHDU: Convergence failed at  45  side 2    Res =  0.5321E+01
 MRCHDU: Convergence failed at  46  side 2    Res =  0.5293E+01
 MRCHDU: Convergence failed at  47  side 2    Res =  0.5085E+01
 MRCHDU: Convergence failed at  48  side 2    Res =  0.4708E+01
 MRCHDU: Convergence failed at  49  side 2    Res =  0.4188E+01
 MRCHDU: Convergence failed at  50  side 2    Res =  0.3565E+01
 MRCHDU: Convergence failed at  51  side 2    Res =  0.7763E+01
 MRCHDU: Convergence failed at  52  side 2    Res =  0.6899E+01
 MRCHDU: Convergence failed at  53  side 2    Res =  0.7506E+01
 MRCHDU: Convergence failed at  54  side 2    Res =  0.9145E+01
 Side 1  free  transition at x/c =  0.2683   63
 Side 2  free  transition at x/c =  0.4166   37

   3   rms: 0.1337E+00   max: 0.1354E+01   T at   37  2   RLX: 0.646
       a = 15.000      CL =  1.9719
      Cm = -0.1767     CD =  0.07808   =>   CDf =  0.00620    CDp =  0.07188

 MRCHDU: Convergence failed at  48  side 2    Res =  0.5505E+00
 Side 1  free  transition at x/c =  0.2675   63
 Side 2  free  transition at x/c =  0.3927   36

   4   rms: 0.1215E+00   max: -.9540E+00   D at   41  2   RLX: 0.524
       a = 15.000      CL =  1.9771
      Cm = -0.1795     CD =  0.07904   =>   CDf =  0.00677    CDp =  0.07227

 Side 1  free  transition at x/c =  0.2671   63
 Side 2  free  transition at x/c =  0.4073   37

   5   rms: 0.9783E-01   max: -.1031E+01   D at   42  2   RLX: 0.485
       a = 15.000      CL =  1.9768
      Cm = -0.1800     CD =  0.07908   =>   CDf =  0.00671    CDp =  0.07237

 Side 1  free  transition at x/c =  0.2669   63
 Side 2  free  transition at x/c =  0.4130   37

   6   rms: 0.7513E-01   max: -.9001E+00   D at   43  2   RLX: 0.555
       a = 15.000      CL =  1.9769
      Cm = -0.1803     CD =  0.07915   =>   CDf =  0.00663    CDp =  0.07252

 Side 1  free  transition at x/c =  0.2668   63
 Side 2  free  transition at x/c =  0.4140   37

   7   rms: 0.4553E-01   max: -.6560E+00   D at   43  2   RLX: 0.762
       a = 15.000      CL =  1.9763
      Cm = -0.1804     CD =  0.07923   =>   CDf =  0.00662    CDp =  0.07261

 Side 1  free  transition at x/c =  0.2667   63
 Side 2  free  transition at x/c =  0.4108   37

   8   rms: 0.1975E-01   max: -.3098E+00   D at   43  2
       a = 15.000      CL =  1.9758
      CmGot result {'DD': 0.01951, 'Dmin': 0.02029, 'LL': -1.2861}
Completed successfully in 2.97 seconds. [{'DD': 0.01951, 'Dmin': 0.02029, 'LL': -1.2861}]
 = -0.1804     CD =  0.07925   =>   CDf =  0.00663    CDp =  0.07262

 Side 1  free  transition at x/c =  0.2667   63
 Side 2  free  transition at x/c =  0.4084   37

   9   rms: 0.2060E-02   max: -.4030E-01   D at   43  2
       a = 15.000      CL =  1.9757
      Cm = -0.1804     CD =  0.07924   =>   CDf =  0.00664    CDp =  0.07260

 Side 1  free  transition at x/c =  0.2667   63
 Side 2  free  transition at x/c =  0.4083   37

  10   rms: 0.2992E-04   max: -.5829E-03   D at   43  2
       a = 15.000      CL =  1.9757
      Cm = -0.1804     CD =  0.07924   =>   CDf =  0.00664    CDp =  0.07260

 Point added to stored polar  1
 Point written to save file  000069M0.1.log                                  
 Dump file unspecified or not available

.OPERva   c>  
 XFOIL   c>  
