Job launching after 0.33 seconds in submission.
Running python job.
Changed into dir /home/simonx/Documents/Udacity/Projects/capstone/PESM_NSGA2_CST_XFoil
Importing evaluationFunctionXFoil.py
Running evaluationFunctionXFoil.main()
0
1
2
0.04
resp: 
 ===================================================
  XFOIL Version 6.97
  Copyright (C) 2000   Mark Drela, Harold Youngren

  This software comes with ABSOLUTELY NO WARRANTY,
    subject to the GNU General Public License.

  Caveat computor
 ===================================================

 File  xfoil.def  not found

   QUIT    Exit program

  .OPER    Direct operating point(s)
  .MDES    Complex mapping design routine
  .QDES    Surface speed design routine
  .GDES    Geometry design routine

   SAVE f  Write airfoil to labeled coordinate file
   PSAV f  Write airfoil to plain coordinate file
   ISAV f  Write airfoil to ISES coordinate file
   MSAV f  Write airfoil to MSES coordinate file
   REVE    Reverse written-airfoil node ordering
   DELI i  Change written-airfoil file delimiters

   LOAD f  Read buffer airfoil from coordinate file
   NACA i  Set NACA 4,5-digit airfoil and buffer airfoil
   INTE    Set buffer airfoil by interpolating two airfoils
   NORM    Buffer airfoil normalization toggle
   HALF    Halve the number of points in buffer airfoil
   XYCM rr Change CM reference location, currently  0.25000 0.00000

   BEND    Display structural properties of current airfoil

   PCOP    Set current-airfoil panel nodes directly from buffer airfoil points
   PANE    Set current-airfoil panel nodes ( 160 ) based on curvature
  .PPAR    Show/change paneling

  .PLOP    Plotting options

   WDEF f  Write  current-settings file
   RDEF f  Reread current-settings file
   NAME s  Specify new airfoil name
   NINC    Increment name version number

   Z       Zoom    | (available in all menus)
   U       Unzoom  | 

 XFOIL   c>   ...............................................

  G raphics-enable flag:        T
  S ize of plot object          10.00"
  A spect ratio of plot object   0.5500
  P age dimensions              11.00 x  8.50"
  M argins from page edges       0.00",  0.00"
  F ont size (relative)          0.0150
  W indow/screen size fraction   0.8000
  B lowup input method:        Cursor    
  O rientation of plot:        Landscape 
  C olor PostScript output?     F

      Option, Value   (or <Return>)    c>   ...............................................

  G raphics-enable flag:        F
  S ize of plot object          10.00"
  A spect ratio of plot object   0.5500
  P age dimensions              11.00 x  8.50"
  M argins from page edges       0.00",  0.00"
  F ont size (relative)          0.0150
  W indow/screen size fraction   0.8000
  B lowup input method:        Cursor    
  O rientation of plot:        Landscape 
  C olor PostScript output?     F

      Option, Value   (or <Return>)    c>  
 XFOIL   c>  
 Labeled airfoil file.  Name:  000257                                          

 Number of input coordinate points: 200
 Clockwise ordering
 Max thickness =     0.128668  at x =   0.193
 Max camber    =     0.107482  at x =   0.422

  LE  x,y  =  -0.00001   0.00094  |   Chord =   0.99989
  TE  x,y  =   0.99988   0.00006  |

 Current airfoil nodes set from buffer airfoil nodes ( 200 )

 XFOIL   c>  
 You are working with the buffer airfoil

.GDES   c>  
  i       x        y      angle
   2   0.9990   0.0004   -0.035
   3   0.9978   0.0010    0.039
   4   0.9961   0.0018    0.014
   5   0.9938   0.0028    0.046
   6   0.9911   0.0040    0.056
   7   0.9880   0.0054    0.032
   8   0.9843   0.0071    0.065
   9   0.9801   0.0089    0.081
  10   0.9755   0.0110    0.064
  11   0.9704   0.0132    0.094
  12   0.9649   0.0157    0.094
  13   0.9589   0.0183    0.103
  14   0.9524   0.0212    0.126
  15   0.9455   0.0242    0.125
  16   0.9382   0.0273    0.142
  17   0.9304   0.0307    0.157
  18   0.9222   0.0342    0.173
  19   0.9135   0.0378    0.175
  20   0.9045   0.0416    0.196
  21   0.8951   0.0455    0.216
  22   0.8853   0.0496    0.222
  23   0.8751   0.0537    0.255
  24   0.8645   0.0580    0.253
  25   0.8536   0.0623    0.285
  26   0.8423   0.0667    0.297
  27   0.8307   0.0711    0.319
  28   0.8187   0.0757    0.339
  29   0.8065   0.0802    0.363
  30   0.7939   0.0848    0.377
  31   0.7810   0.0894    0.408
  32   0.7679   0.0939    0.427
  33   0.7545   0.0985    0.448
  34   0.7409   0.1030    0.477
  35   0.7270   0.1075    0.494
  36   0.7129   0.1119    0.530
  37   0.6986   0.1162    0.545
  38   0.6841   0.1205    0.576
  39   0.6694   0.1246    0.603
  40   0.6545   0.1286    0.624
  41   0.6395   0.1325    0.654
  42   0.6243   0.1362    0.678
  43   0.6091   0.1398    0.709
  44   0.5937   0.1432    0.731
  45   0.5782   0.1464    0.754
  46   0.5627   0.1494    0.788
  47   0.5471   0.1522    0.804
  48   0.5314   0.1548    0.834
  49   0.5157   0.1572    0.859
  50   0.5000   0.1593    0.876
  51   0.4843   0.1611    0.906
  52   0.4686   0.1628    0.924
  53   0.4529   0.1641    0.948
  54   0.4373   0.1652    0.964
  55   0.4218   0.1661    0.983
  56   0.4063   0.1666    1.004
  57   0.3909   0.1669    1.020
  58   0.3757   0.1669    1.036
  59   0.3605   0.1667    1.050
  60   0.3455   0.1661    1.067
  61   0.3306   0.1653    1.076
  62   0.3159   0.1642    1.091
  63   0.3014   0.1629    1.105
  64   0.2871   0.1613    1.115
  65   0.2730   0.1595    1.122
  66   0.2591   0.1574    1.142
  67   0.2455   0.1550    1.148
  68   0.2321   0.1524    1.164
  69   0.2190   0.1496    1.177
  70   0.2061   0.1466    1.192
  71   0.1935   0.1434    1.212
  72   0.1813   0.1399    1.224
  73   0.1693   0.1363    1.251
  74   0.1577   0.1325    1.275
  75   0.1464   0.1285    1.311
  76   0.1355   0.1244    1.333
  77   0.1249   0.1201    1.386
  78   0.1147   0.1157    1.426
  79   0.1049   0.1112    1.483
  80   0.0955   0.1065    1.538
  81   0.0865   0.1017    1.625
  82   0.0778   0.0968    1.694
  83   0.0696   0.0919    1.798
  84   0.0618   0.0868    1.912
  85   0.0545   0.0817    2.024
  86   0.0476   0.0765    2.177
  87   0.0411   0.0712    2.337
  88   0.0351   0.0659    2.514
  89   0.0296   0.0606    2.718
  90   0.0245   0.0552    2.937
  91   0.0199   0.0498    3.182
  92   0.0157   0.0443    3.452
  93   0.0120   0.0388    3.707
  94   0.0089   0.0333    4.007
  95   0.0062   0.0278    4.266
  96   0.0039   0.0222    4.522
  97   0.0022   0.0167    4.758
  98   0.0010   0.0111    4.922
  99   0.0002   0.0056    5.035
 100   0.0000   0.0000    7.941
 101   0.0002  -0.0026   10.634
 102   0.0010  -0.0052   10.237
 103   0.0022  -0.0077    9.625
 104   0.0039  -0.0101    8.860
 105   0.0062  -0.0123    8.077
 106   0.0089  -0.0143    7.281
 107   0.0120  -0.0162    6.478
 108   0.0157  -0.0178    5.768
 109   0.0199  -0.0191    5.092
 110   0.0245  -0.0201    4.493
 111   0.0296  -0.0208    3.944
 112   0.0351  -0.0212    3.462
 113   0.0411  -0.0213    3.023
 114   0.0476  -0.0210    2.612
 115   0.0545  -0.0204    2.271
 116   0.0618  -0.0195    1.940
 117   0.0696  -0.0182    1.653
 118   0.0778  -0.0167    1.378
 119   0.0865  -0.0148    1.144
 120   0.0955  -0.0126    0.919
 121   0.1049  -0.0102    0.707
 122   0.1147  -0.0076    0.529
 123   0.1249  -0.0048    0.346
 124   0.1355  -0.0018    0.189
 125   0.1464   0.0014    0.046
 126   0.1577   0.0046   -0.104
 127   0.1693   0.0080   -0.229
 128   0.1813   0.0113   -0.337
 129   0.1935   0.0147   -0.453
 130   0.2061   0.0181   -0.541
 131   0.2190   0.0214   -0.639
 132   0.2321   0.0246   -0.707
 133   0.2455   0.0277   -0.774
 134   0.2591   0.0307   -0.834
 135   0.2730   0.0335   -0.878
 136   0.2871   0.0362   -0.913
 137   0.3014   0.0386   -0.940
 138   0.3159   0.0409   -0.954
 139   0.3306   0.0429   -0.960
 140   0.3455   0.0447   -0.958
 141   0.3605   0.0462   -0.949
 142   0.3757   0.0475   -0.923
 143   0.3909   0.0486   -0.896
 144   0.4063   0.0494   -0.868
 145   0.4218   0.0500   -0.824
 146   0.4373   0.0504   -0.776
 147   0.4529   0.0506   -0.737
 148   0.4686   0.0506   -0.679
 149   0.4843   0.0504   -0.627
 150   0.5000   0.0500   -0.576
 151   0.5157   0.0495   -0.516
 152   0.5314   0.0488   -0.469
 153   0.5471   0.0480   -0.411
 154   0.5627   0.0470   -0.362
 155   0.5782   0.0460   -0.313
 156   0.5937   0.0449   -0.265
 157   0.6091   0.0438   -0.228
 158   0.6243   0.0426   -0.187
 159   0.6395   0.0413   -0.157
 160   0.6545   0.0400   -0.118
 161   0.6694   0.0387   -0.103
 162   0.6841   0.0374   -0.079
 163   0.6986   0.0361   -0.059
 164   0.7129   0.0348   -0.058
 165   0.7270   0.0335   -0.040
 166   0.7409   0.0322   -0.043
 167   0.7545   0.0309   -0.045
 168   0.7679   0.0296   -0.052
 169   0.7810   0.0284   -0.056
 170   0.7939   0.0271   -0.068
 171   0.8065   0.0259   -0.087
 172   0.8187   0.0247   -0.101
 173   0.8307   0.0235   -0.122
 174   0.8423   0.0223   -0.136
 175   0.8536   0.0211   -0.160
 176   0.8645   0.0199   -0.182
 177   0.8751   0.0187   -0.202
 178   0.8853   0.0175   -0.218
 179   0.8951   0.0164   -0.237
 180   0.9045   0.0152   -0.251
 181   0.9135   0.0140   -0.276
 182   0.9222   0.0129   -0.277
 183   0.9304   0.0118   -0.293
 184   0.9382   0.0107   -0.296
 185   0.9455   0.0096   -0.301
 186   0.9524   0.0085   -0.301
 187   0.9589   0.0075   -0.296
 188   0.9649   0.0065   -0.296
 189   0.9704   0.0055   -0.270
 190   0.9755   0.0047   -0.275
 191   0.9801   0.0038   -0.255
 192   0.9843   0.0031   -0.229
 193   0.9880   0.0024   -0.197
 194   0.9911   0.0018   -0.188
 195   0.9938   0.0012   -0.176
 196   0.9961   0.0008   -0.096
 197   0.9978   0.0004   -0.110
 198   0.9990   0.0002   -0.107
 199   0.9998   0.0000    0.090

 Maximum panel corner angle = 10.634   at  i,x,y  = 101   0.0002  -0.0026

 Enter corner angle criterion for refinement (deg):   5.317
 Enter type of spline parameter (1=uniform, 2=arclength):   1
 Enter refinement x limits:  -0.10000   1.10000
 Number of points added:           18
 Max thickness =     0.128634  at x =   0.194
 Max camber    =     0.108047  at x =   0.422

 Maximum panel corner angle =  5.132   at  i,x,y  = 103   0.0001  -0.0019

.GDES   c>  
 Buffer airfoil is not identical to current airfoil

 XFOIL   c>  
 Blunt trailing edge.  Gap =  0.00027

 Paneling parameters used...
   Number of panel nodes       160
   Panel bunching parameter    1.000
   TE/LE panel density ratio   0.150
   Refined-area/LE panel density ratio    0.200
   Top    side refined area x/c limits  1.000 1.000
   Bottom side refined area x/c limits  1.000 1.000

 XFOIL   c>  
Enter output filename   s>  
 XFOIL   c>  
.OPERi   c>   Current iteration limit:          20

Enter new iteration limit   i>  
Enter new iteration limit   i>  
Enter new iteration limit   i>  
.OPERi   c>  
 M  =    0.0000
 Re =  0.3000E+06

.OPERv   c>  
 Sonic Cp =   -420.65      Sonic Q/Qinf =    22.825


.OPERv   c>  
 Polar  1 newly created for accumulation
 Airfoil archived with polar: 000257                                          

Enter  polar save filename  OR  <return> for no file   s>  
 New polar save file available

Enter  polar dump filename  OR  <return> for no file   s>  
 Polar dump file will NOT be written

 Polar accumulation enabled

.OPERva   c>   Calculating unit vorticity distributions ...
 Calculating wake trajectory ...
 Calculating source influence matrix ...

 Solving BL system ...

 Initializing BL ...
    side            1  ...
 MRCHUE: Inverse mode at  57     Hk =   4.028
 MRCHUE: Inverse mode at  58     Hk =   4.789
 MRCHUE: Inverse mode at  59     Hk =   5.534
 MRCHUE: Inverse mode at  60     Hk =   6.268
 MRCHUE: Inverse mode at  61     Hk =   6.994
 MRCHUE: Inverse mode at  62     Hk =   7.716
 MRCHUE: Inverse mode at  63     Hk =   8.434
 MRCHUE: Inverse mode at  64     Hk =   9.149
 MRCHUE: Inverse mode at  65     Hk =   6.321
 MRCHUE: Inverse mode at  66     Hk =   4.237
 MRCHUE: Inverse mode at  67     Hk =   2.871
 MRCHUE: Convergence failed at  87  side 1    Res =  0.1083E+03
    side            2  ...
 MRCHUE: Inverse mode at  24     Hk =   4.080
 MRCHUE: Inverse mode at  25     Hk =   4.696
 MRCHUE: Inverse mode at  26     Hk =   5.332
 MRCHUE: Inverse mode at  27     Hk =   5.997
 MRCHUE: Inverse mode at  28     Hk =   6.701
 MRCHUE: Inverse mode at  29     Hk =   7.449
 MRCHUE: Inverse mode at  30     Hk =   8.246
 MRCHUE: Inverse mode at  31     Hk =   9.085
 MRCHUE: Inverse mode at  32     Hk =   9.952
 MRCHUE: Inverse mode at  33     Hk =   5.632
 MRCHUE: Inverse mode at  34     Hk =   3.791
 MRCHUE: Inverse mode at  35     Hk =   2.570
 MRCHUE: Convergence failed at  75  side 2    Res =  0.3877E+01

 MRCHDU: Convergence failed at  87  side 1    Res =  0.2084E+03
 Side 1  free  transition at x/c =  0.5941   65
 Side 2  free  transition at x/c =  0.1760   33

   1   rms: 0.4918E+00   max: 0.2133E+01   D at   77  2   RLX: 0.301
       a =  2.000      CL =  1.4492
      Cm = -0.2580     CD =  0.00864   =>   CDf =  0.00794    CDp =  0.00070

 MRCHDU: Convergence failed at  34  side 2    Res =  0.4422E+01
 MRCHDU: Convergence failed at  35  side 2    Res =  0.1358E+02
 MRCHDU: Convergence failed at  36  side 2    Res =  0.3884E+02
 MRCHDU: Convergence failed at  37  side 2    Res =  0.5773E+02
 MRCHDU: Convergence failed at  38  side 2    Res =  0.6319E+02
 MRCHDU: Convergence failed at  39  side 2    Res =  0.6152E+03
 MRCHDU: Convergence failed at  40  side 2    Res =  0.1134E+03
 MRCHDU: Convergence failed at  41  side 2    Res =  0.5534E+02
 MRCHDU: Convergence failed at  42  side 2    Res =  0.4682E+02
 MRCHDU: Convergence failed at  43  side 2    Res =  0.4262E+02
 MRCHDU: Convergence failed at  44  side 2    Res =  0.4153E+02
 MRCHDU: Convergence failed at  45  side 2    Res =  0.4224E+02
 MRCHDU: Convergence failed at  46  side 2    Res =  0.4503E+02
 MRCHDU: Convergence failed at  47  side 2    Res =  0.5021E+02
 MRCHDU: Convergence failed at  48  side 2    Res =  0.6001E+02
 MRCHDU: Convergence failed at  49  side 2    Res =  0.6257E+02
 MRCHDU: Convergence failed at  50  side 2    Res =  0.8463E+02
 MRCHDU: Convergence failed at  51  side 2    Res =  0.1781E+02
 MRCHDU: Convergence failed at  52  side 2    Res =  0.1984E+02
 MRCHDU: Convergence failed at  53  side 2    Res =  0.2101E+02
 MRCHDU: Convergence failed at  54  side 2    Res =  0.2646E+02
 MRCHDU: Convergence failed at  55  side 2    Res =  0.2699E+02
 MRCHDU: Convergence failed at  56  side 2    Res =  0.2569E+02
 MRCHDU: Convergence failed at  57  side 2    Res =  0.2238E+02
 MRCHDU: Convergence failed at  58  side 2    Res =  0.1807E+02
 MRCHDU: Convergence failed at  59  side 2    Res =  0.1379E+02
 MRCHDU: Convergence failed at  60  side 2    Res =  0.1024E+02
 MRCHDU: Convergence failed at  61  side 2    Res =  0.7595E+01
 MRCHDU: Convergence failed at  62  side 2    Res =  0.6041E+01
 MRCHDU: Convergence failed at  63  side 2    Res =  0.4913E+01
 MRCHDU: Convergence failed at  64  side 2    Res =  0.3844E+01
 MRCHDU: Convergence failed at  65  side 2    Res =  0.3240E+01
 MRCHDU: Convergence failed at  66  side 2    Res =  0.9393E+01
 MRCHDU: Convergence failed at  67  side 2    Res =  0.9570E+01
 MRCHDU: Convergence failed at  68  side 2    Res =  0.1006E+02
 MRCHDU: Convergence failed at  69  side 2    Res =  0.1091E+02
 MRCHDU: Convergence failed at  70  side 2    Res =  0.1186E+02
 MRCHDU: Convergence failed at  71  side 2    Res =  0.1319E+02
 MRCHDU: Convergence failed at  72  side 2    Res =  0.1572E+02
 MRCHDU: Convergence failed at  73  side 2    Res =  0.2028E+02
 MRCHDU: Convergence failed at  74  side 2    Res =  0.3532E+02
 MRCHDU: Convergence failed at  75  side 2    Res =  0.3063E+02
 MRCHDU: Convergence failed at  76  side 2    Res =  0.5888E+02
 Side 1  free  transition at x/c =  0.5995   64
 Side 2  free  transition at x/c =  0.1710   33

   2   rms: 0.6793E+00   max: 0.6055E+01   T at   33  2   RLX: 0.210
       a =  2.000      CL =  1.2191
      Cm = -0.1981     CD =  0.00840   =>   CDf =  0.00546    CDp =  0.00294

 MRCHDU: Convergence failed at  33  side 2    Res =  0.8473E+01
 MRCHDU: Convergence failed at  50  side 2    Res =  0.2063E+00
 MRCHDU: Convergence failed at  51  side 2    Res =  0.2806E+00
 MRCHDU: Convergence failed at  52  side 2    Res =  0.3354E+00
 MRCHDU: Convergence failed at  53  side 2    Res =  0.3794E+00
 MRCHDU: Convergence failed at  54  side 2    Res =  0.4169E+00
 MRCHDU: Convergence failed at  55  side 2    Res =  0.4496E+00
 MRCHDU: Convergence failed at  56  side 2    Res =  0.4793E+00
 MRCHDU: Convergence failed at  57  side 2    Res =  0.5068E+00
 MRCHDU: Convergence failed at  58  side 2    Res =  0.5316E+00
 MRCHDU: Convergence failed at  59  side 2    Res =  0.5544E+00
 MRCHDU: Convergence failed at  60  side 2    Res =  0.5756E+00
 MRCHDU: Convergence failed at  61  side 2    Res =  0.5965E+00
 MRCHDU: Convergence failed at  62  side 2    Res =  0.6144E+00
 MRCHDU: Convergence failed at  63  side 2    Res =  0.6314E+00
 MRCHDU: Convergence failed at  64  side 2    Res =  0.6474E+00
 MRCHDU: Convergence failed at  65  side 2    Res =  0.6627E+00
 MRCHDU: Convergence failed at  66  side 2    Res =  0.6776E+00
 MRCHDU: Convergence failed at  67  side 2    Res =  0.6921E+00
 MRCHDU: Convergence failed at  68  side 2    Res =  0.7066E+00
 MRCHDU: Convergence failed at  69  side 2    Res =  0.7214E+00
 MRCHDU: Convergence failed at  70  side 2    Res =  0.7365E+00
 MRCHDU: Convergence failed at  71  side 2    Res =  0.7523E+00
 MRCHDU: Convergence failed at  72  side 2    Res =  0.7687E+00
 MRCHDU: Convergence failed at  73  side 2    Res =  0.7858E+00
 MRCHDU: Convergence failed at  74  side 2    Res =  0.8034E+00
 MRCHDU: Convergence failed at  75  side 2    Res =  0.8216E+00
 MRCHDU: Convergence failed at  76  side 2    Res =  0.8472E+00
 MRCHDU: Convergence failed at  78  side 2    Res =  0.2860E+00
 MRCHDU: Convergence failed at  79  side 2    Res =  0.4334E+00
 MRCHDU: Convergence failed at  80  side 2    Res =  0.5407E+00
 MRCHDU: Convergence failed at  81  side 2    Res =  0.6204E+00
 MRCHDU: Convergence failed at  82  side 2    Res =  0.6801E+00
 MRCHDU: Convergence failed at  83  side 2    Res =  0.7251E+00
 MRCHDU: Convergence failed at  84  side 2    Res =  0.7587E+00
 MRCHDU: Convergence failed at  85  side 2    Res =  0.7828E+00
 MRCHDU: Convergence failed at  86  side 2    Res =  0.7986E+00
 MRCHDU: Convergence failed at  87  side 2    Res =  0.8069E+00
 MRCHDU: Convergence failed at  88  side 2    Res =  0.8080E+00
 MRCHDU: Convergence failed at  89  side 2    Res =  0.8019E+00
 MRCHDU: Convergence failed at  90  side 2    Res =  0.7886E+00
 MRCHDU: Convergence failed at  91  side 2    Res =  0.7679E+00
 MRCHDU: Convergence failed at  92  side 2    Res =  0.7395E+00
 MRCHDU: Convergence failed at  93  side 2    Res =  0.7030E+00
 MRCHDU: Convergence failed at  94  side 2    Res =  0.6581E+00
 MRCHDU: Convergence failed at  95  side 2    Res =  0.6043E+00
 MRCHDU: Convergence failed at  96  side 2    Res =  0.5412E+00
 MRCHDU: Convergence failed at  97  side 2    Res =  0.4683E+00
 MRCHDU: Convergence failed at  98  side 2    Res =  0.3856E+00
 Side 1  free  transition at x/c =  0.6036   64
 Side 2  free  transition at x/c =  0.1522   32

   3   rms: 0.8458E+00   max: 0.5891E+01   T at   32  2   RLX: 0.119
       a =  2.000      CL =  1.3080
      Cm = -0.2513     CD =  0.01740   =>   CDf =  0.00556    CDp =  0.01183

 Side 1  free  transition at x/c =  0.6087   63
 Side 2  free  transition at x/c =  0.1432   32

   4   rms: 0.1083E+01   max: 0.1197E+02   T at   32  2   RLX: 0.087
       a =  2.000      CL =  1.3291
      Cm = -0.2560     CD =  0.03710   =>   CDf =  0.00545    CDp =  0.03165

 Side 1  free  transition at x/c =  0.6101   65
 Side 2  free  transition at x/c =  0.1348   31

   5   rms: 0.2824E+01   max: 0.4147E+02   D at    2  1   RLX: 0.024
       a =  2.000      CL =  1.3078
      Cm = -0.2541     CD =  0.03784   =>   CDf =  0.00554    CDp =  0.03230

 Side 1  free  transition at x/c =  0.6107   64
 Side 2  free  transition at x/c =  0.1335   32

   6   rms: 0.1620E+01   max: 0.6302E+01   T at   32  2   RLX: 0.115
       a =  2.000      CL =  1.1634
      Cm = -0.2432     CD =  0.03248   =>   CDf =  0.00550    CDp =  0.02698

 MRCHDU: Convergence failed at  33  side 2    Res =  0.1101E+03
 Side 1  free  transition at x/c =  0.6135   63
 Side 2  free  transition at x/c =  0.1314   32

   7   rms: 0.6621E+01   max: 0.2889E+02   D at   34  2   RLX: 0.046
       a =  2.000      CL =  1.2932
      Cm = -0.2348     CD =  0.04440   =>   CDf =  0.00501    CDp =  0.03938

 Side 1  free  transition at x/c =  0.6114   65
 Side 2  free  transition at x/c =  0.1326   31

   8   rms: 0.4717E+01   max: -.5557E+02   T at   31  2   RLX: 0.009
       a =  2.000      CL =  1.4030
      Cm = -0.2624     CD =  0.04587   =>   CDf =  0.00529    CDp =  0.04058

 Side 1  free  transition at x/c =  0.6112   65
 Side 2  free  transition at x/c =  0.1366   31

   9   rms: 0.8573E+00   max: 0.7693E+01   T at   31  2   RLX: 0.195
       a =  2.000      CL =  1.2439
      Cm = -0.2388     CD =  0.04066   =>   CDf =  0.00540    CDp =  0.03526

 Side 1  free  transition at x/c =  0.6144   64
 Side 2  free  transition at x/c =  0.1267   31

  10   rms: 0.4641E+01   max: 0.9950E+02   T at   31  2   RLX: 0.015
       a =  2.000      CL =  1.2213
      Cm = -0.2392     CD =  0.04140   =>   CDf =  0.00506    CDp =  0.03634

 Side 1  free  transition at x/c =  0.6149   64
 Side 2  free  transition at x/c =  0.1208   31

  11   rms: 0.1411E+01   max: -.1256E+02   T at   31  2   RLX: 0.040
       a =  2.000      CL =  1.2132
      Cm = -0.2311     CD =  0.04436   =>   CDf =  0.00505    CDp =  0.03931

 Side 1  free  transition at x/c =  0.6151   64
 Side 2  free  transition at x/c =  0.1280   31

  12   rms: 0.1160E+01   max: 0.2022E+02   T at   31  2   RLX: 0.073
       a =  2.000      CL =  1.1524
      Cm = -0.2219     CD =  0.04231   =>   CDf =  0.00502    CDp =  0.03730

 Side 1  free  transition at x/c =  0.6160   64
 Side 2  free  transition at x/c =  0.1204   30

  13   rms: 0.7337E+00   max: -.6340E+01   T at   32  2   RLX: 0.079
       a =  2.000      CL =  1.1080
      Cm = -0.2092     CD =  0.04531   =>   CDf =  0.00506    CDp =  0.04026

 Side 1  free  transition at x/c =  0.6167   63
 Side 2  free  transition at x/c =  0.1225   32

  14   rms: 0.5572E+00   max: 0.4515E+01   T at    2  2   RLX: 0.206
       a =  2.000      CL =  1.0162
      Cm = -0.1931     CD =  0.04283   =>   CDf =  0.00487    CDp =  0.03795

 TRCHEK2: N2 convergence failed.
 x:  0.29846  0.31239  0.31632  N:  8.961  9.000  9.008  Nx:   5.715   dN:-0.889E-01
 TRCHEK2: N2 convergence failed.
 x:  0.29846  0.31089  0.31632  N:  8.961  9.000  9.013  Nx:   6.805   dN:-0.859E-01
 TRCHEK2: N2 convergence failed.
 x:  0.29846  0.30957  0.31632  N:  8.961  9.000  9.019  Nx:   8.044   dN:-0.851E-01
 TRCHEK2: N2 convergence failed.
 x:  0.29846  0.30843  0.31632  N:  8.961  9.000  9.024  Nx:   9.510   dN:-0.851E-01
 TRCHEK2: N2 convergence failed.
 x:  0.29846  0.30958  0.31632  N:  8.961  9.000  9.018  Nx:   9.228   dN:-0.595E-01
 TRCHEK2: N2 convergence failed.
 x:  0.29846  0.31126  0.31632  N:  8.961  9.000  9.012  Nx:   8.460   dN:-0.353E-01
 TRCHEK2: N2 convergence failed.
 x:  0.29846  0.31632  0.31632  N:  8.961  9.000  9.032  Nx:   3.879   dN: 0.323E-01
 Side 1  free  transition at x/c =  0.6181   63
 Side 2  free  transition at x/c =  0.2808   42

  15   rms: 0.5611E+00   max: -.2284E+01   D at   78  2   RLX: 0.219
       a =  2.000      CL =  1.0537
      Cm = -0.2074     CD =  0.02650   =>   CDf =  0.00496    CDp =  0.02154

 MRCHDU: Convergence failed at  59  side 2    Res =  0.4468E+01
 MRCHDU: Convergence failed at  60  side 2    Res =  0.4777E+01
 MRCHDU: Convergence failed at  61  side 2    Res =  0.4128E+01
 MRCHDU: Convergence failed at  62  side 2    Res =  0.3921E+01
 MRCHDU: Convergence failed at  63  side 2    Res =  0.3919E+01
 Side 1  free  transition at x/c =  0.6187   63
 Side 2  free  transition at x/c =  0.1391   33

  16   rms: 0.4052E+00   max: -.1716E+01   D at   78  2   RLX: 0.291
       a =  2.000      CL =  1.0203
      Cm = -0.1923     CD =  0.03297   =>   CDf =  0.00488    CDp =  0.02809

 Side 1  free  transition at x/c =  0.6195   63
 Side 2  free  transition at x/c =  0.1347   33

  17   rms: 0.3456E+00   max: -.1579E+01   T at   33  2   RLX: 0.317
       a =  2.000      CL =  1.0759
      Cm = -0.1987     CD =  0.03022   =>   CDf =  0.00504    CDp =  0.02518

 Side 1  free  transition at x/c =  0.6195   63
 Side 2  free  transition at x/c =  0.1371   33

  18   rms: 0.6779E+00   max: 0.9585E+01   T at   33  2   RLX: 0.157
       a =  2.000      CL =  1.1165
      Cm = -0.2067     CD =  0.02862   =>   CDf =  0.00500    CDp =  0.02362

 Side 1  free  transition at x/c =  0.6195   64
 Side 2  free  transition at x/c =  0.1185   30

  19   rms: 0.4112E+00   max: -.2860E+01   D at    2  1   RLX: 0.175
       a =  2.000      CL =  1.1456
      Cm = -0.2109     CD =  0.02793   =>   CDf =  0.00534    CDp =  0.02260

 Side 1  free  transition at x/c =  0.6194   64
 Side 2  free  transition at x/c =  0.1182   30

  20   rms: 0.3478E+00   max: -.1235E+01   D at   63  2   RLX: 0.405
       a =  2.000      CL =  1.2231
      Cm = -0.2209     CD =  0.02375   =>   CDf =  0.00548    CDp =  0.01827

 Side 1  free  transition at x/c =  0.6192   64
 Side 2  free  transition at x/c =  0.1227   31

  21   rms: 0.2247E+00   max: -.1011E+01   D at   61  2   RLX: 0.494
       a =  2.000      CL =  1.2789
      Cm = -0.2260     CD =  0.02125   =>   CDf =  0.00598    CDp =  0.01527

 Side 1  free  transition at x/c =  0.6189   64
 Side 2  free  transition at x/c =  0.1275   31

  22   rms: 0.2359E+00   max: -.1022E+01   D at   61  2   RLX: 0.489
       a =  2.000      CL =  1.3112
      Cm = -0.2294     CD =  0.02009   =>   CDf =  0.00606    CDp =  0.01404

 Side 1  free  transition at x/c =  0.6188   65
 Side 2  free  transition at x/c =  0.1329   31

  23   rms: 0.1462E+00   max: -.8297E+00   T at   31  2   RLX: 0.603
       a =  2.000      CL =  1.3292
      Cm = -0.2310     CD =  0.01818   =>   CDf =  0.00696    CDp =  0.01121

 Side 1  free  transition at x/c =  0.6188   65
 Side 2  free  transition at x/c =  0.1355   31

  24   rms: 0.1563E+00   max: -.7343E+00   D at   38  2   RLX: 0.681
       a =  2.000      CL =  1.3372
      Cm = -0.2324     CD =  0.01757   =>   CDf =  0.00692    CDp =  0.01065

 Side 1  free  transition at x/c =  0.6188   65
 Side 2  free  transition at x/c =  0.1414   31

  25   rms: 0.1710E+00   max: -.8966E+00   D at   38  2   RLX: 0.558
       a =  2.000      CL =  1.3418
      Cm = -0.2332     CD =  0.01691   =>   CDf =  0.00718    CDp =  0.00973
 VISCAL:  Convergence failed
 Calculating wake trajectory ...
 Calculating source influence matrix ...

 Solving BL system ...

 Side 1  free  transition at x/c =  0.6189   65
 Side 2  free  transition at x/c =  0.1473   32

   1   rms: 0.1711E+00   max: -.1415E+01   T at   32  2   RLX: 0.353
       a =  3.000      CL =  1.3783
      Cm = -0.2330     CD =  0.01637   =>   CDf =  0.00750    CDp =  0.00887

 Side 1  free  transition at x/c =  0.6120   65
 Side 2  free  transition at x/c =  0.1544   32

   2   rms: 0.1443E+00   max: -.9612E+00   T at   32  2   RLX: 0.520
       a =  3.000      CL =  1.4183
      Cm = -0.2335     CD =  0.01680   =>   CDf =  0.00747    CDp =  0.00932

 Side 1  free  transition at x/c =  0.6078   64
 Side 2  free  transition at x/c =  0.1644   33

   3   rms: 0.4821E-01   max: 0.3261E+00   D at   33  2
       a =  3.000      CL =  1.4423
      Cm = -0.2318     CD =  0.01672   =>   CDf =  0.00741    CDp =  0.00931

 Side 1  free  transition at x/c =  0.6000   65
 Side 2  free  transition at x/c =  0.1688   32

   4   rms: 0.1268E-01   max: -.8203E-01   D at   32  2
       a =  3.000      CL =  1.4466
      Cm = -0.2326     CD =  0.01666   =>   CDf =  0.00753    CDp =  0.00913

 Side 1  free  transition at x/c =  0.6008   65
 Side 2  free  transition at x/c =  0.1699   32

   5   rms: 0.2860E-03   max: 0.2134E-02   D at    4  1
       a =  3.000      CL =  1.4466
      Cm = -0.2326     CD =  0.01666   =>   CDf =  0.00752    CDp =  0.00914

 Side 1  free  transition at x/c =  0.6008   65
 Side 2  free  transition at x/c =  0.1699   32

   6   rms: 0.1285E-05   max: -.5153E-05   D at   41  2
       a =  3.000      CL =  1.4466
      Cm = -0.2326     CD =  0.01666   =>   CDf =  0.00752    CDp =  0.00914

 Point added to stored polar  1
 Point written to save file  000257M0.04.log                                 
 Dump file unspecified or not available
 Calculating wake trajectory ...
 Calculating source influence matrix ...

 Solving BL system ...

 Side 1  free  transition at x/c =  0.6008   65
 Side 2  free  transition at x/c =  0.1699   32

   1   rms: 0.1589E+00   max: -.1189E+01   T at   32  2   RLX: 0.420
       a =  4.000      CL =  1.4883
      Cm = -0.2318     CD =  0.01680   =>   CDf =  0.00754    CDp =  0.00927

 Side 1  free  transition at x/c =  0.5923   65
 Side 2  free  transition at x/c =  0.1828   33

   2   rms: 0.1009E+00   max: -.6122E+00   T at   33  2   RLX: 0.817
       a =  4.000      CL =  1.5457
      Cm = -0.2329     CD =  0.01707   =>   CDf =  0.00740    CDp =  0.00967

 Side 1  free  transition at x/c =  0.5866   65
 Side 2  free  transition at x/c =  0.1941   33

   3   rms: 0.6272E-01   max: -.3346E+00   T at   33  2
       a =  4.000      CL =  1.5449
      Cm = -0.2307     CD =  0.01699   =>   CDf =  0.00760    CDp =  0.00939

 Side 1  free  transition at x/c =  0.5817   65
 Side 2  free  transition at x/c =  0.1988   33

   4   rms: 0.7410E-02   max: -.7259E-01   D at   35  2
       a =  4.000      CL =  1.5473
      Cm = -0.2311     CD =  0.01706   =>   CDf =  0.00750    CDp =  0.00955

 Side 1  free  transition at x/c =  0.5821   65
 Side 2  free  transition at x/c =  0.1978   33

   5   rms: 0.3761E-03   max: -.4945E-02   D at   35  2
       a =  4.000      CL =  1.5473
      Cm = -0.2311     CD =  0.01706   =>   CDf =  0.00750    CDp =  0.00956

 Side 1  free  transition at x/c =  0.5821   65
 Side 2  free  transition at x/c =  0.1978   33

   6   rms: 0.1850E-05   max: -.1556E-04   D at   35  2
       a =  4.000      CL =  1.5473
      Cm = -0.2311     CD =  0.01706   =>   CDf =  0.00750    CDp =  0.00956

 Point added to stored polar  1
 Point written to save file  000257M0.04.log                                 
 Dump file unspecified or not available
 Calculating wake trajectory ...
 Calculating source influence matrix ...

 Solving BL system ...

 Side 1  free  transition at x/c =  0.5821   65
 Side 2  free  transition at x/c =  0.1978   33

   1   rms: 0.1582E+00   max: -.1280E+01   T at   33  2   RLX: 0.391
       a =  5.000      CL =  1.5839
      Cm = -0.2301     CD =  0.01726   =>   CDf =  0.00752    CDp =  0.00974

 Side 1  free  transition at x/c =  0.5742   65
 Side 2  free  transition at x/c =  0.2085   33

   2   rms: 0.1193E+00   max: -.1332E+01   T at   33  2   RLX: 0.375
       a =  5.000      CL =  1.6104
      Cm = -0.2301     CD =  0.01810   =>   CDf =  0.00738    CDp =  0.01073

 Side 1  free  transition at x/c =  0.5711   65
 Side 2  free  transition at x/c =  0.2202   33

   3   rms: 0.7057E-01   max: 0.8294E+00   D at   33  2
       a =  5.000      CL =  1.6366
      Cm = -0.2278     CD =  0.01773   =>   CDf =  0.00754    CDp =  0.01019

 Side 1  free  transition at x/c =  0.5619   65
 Side 2  free  transition at x/c =  0.2307   34

   4   rms: 0.1458E-01   max: -.8982E-01   T at   34  2
       a =  5.000      CL =  1.6432
      Cm = -0.2290     CD =  0.01766   =>   CDf =  0.00746    CDp =  0.01020

 Side 1  free  transition at x/c =  0.5630   65
 Side 2  free  transition at x/c =  0.2326   34

   5   rms: 0.9775E-03   max: -.1030E-01   D at   34  2
       a =  5.000      CL =  1.6431
      Cm = -0.2290     CD =  0.01768   =>   CDf =  0.00742    CDp =  0.01027

 Side 1  free  transition at x/c =  0.5629   65
 Side 2  free  transition at x/c =  0.2326   34

   6   rms: 0.1954E-05   max: -.3006E-04   D at   36  2
       a =  5.000      CL =  1.6431
      Cm = -0.2290     CD =  0.01768   =>   CDf =  0.00742    CDp =  0.01027

 Point added to stored polar  1
 Point written to save file  000257M0.04.log                                 
 Dump file unspecified or not available
 Calculating wake trajectory ...
 Calculating source influence matrix ...

 Solving BL system ...

 Side 1  free  transition at x/c =  0.5629   65
 Side 2  free  transition at x/c =  0.2326   34

   1   rms: 0.1611E+00   max: -.1375E+01   T at   34  2   RLX: 0.364
       a =  6.000      CL =  1.6753
      Cm = -0.2278     CD =  0.01792   =>   CDf =  0.00743    CDp =  0.01049

 Side 1  free  transition at x/c =  0.5555   65
 Side 2  free  transition at x/c =  0.2449   35

   2   rms: 0.2964E+00   max: -.2420E+01   T at   35  2   RLX: 0.207
       a =  6.000      CL =  1.6928
      Cm = -0.2282     CD =  0.01845   =>   CDf =  0.00728    CDp =  0.01117

 Side 1  free  transition at x/c =  0.5534   65
 Side 2  free  transition at x/c =  0.2547   34

   3   rms: 0.1451E+00   max: 0.1873E+01   D at    2  1   RLX: 0.567
       a =  6.000      CL =  1.7070
      Cm = -0.2253     CD =  0.01866   =>   CDf =  0.00752    CDp =  0.01114

 Side 1  free  transition at x/c =  0.5472   65
 Side 2  free  transition at x/c =  0.2670   35

   4   rms: 0.4733E-01   max: -.3850E+00   T at   35  2
       a =  6.000      CL =  1.7298
      Cm = -0.2254     CD =  0.01848   =>   CDf =  0.00734    CDp =  0.01113

 Side 1  free  transition at x/c =  0.5428   65
 Side 2  free  transition at x/c =  0.2778   35

   5   rms: 0.2584E-01   max: -.2592E+00   D at   36  2
       a =  6.000      CL =  1.7315
      Cm = -0.2256     CD =  0.01852   =>   CDf =  0.00732    CDp =  0.01120

 Side 1  free  transition at x/c =  0.5430   65
 Side 2  free  transition at x/c =  0.2813   36

   6   rms: 0.4503E-02   max: 0.8125E-01   D at   36  2
       a =  6.000      CL =  1.7317
      Cm = -0.2257     CD =  0.01850   =>   CDf =  0.00728    CDp =  0.01122

 Side 1  free  transition at x/c =  0.5430   65
 Side 2  free  transition at x/c =  0.2809   36

   7   rms: 0.7166E-03   max: 0.1005E-01   D at   36  2
       a =  6.000      CL =  1.7318
      Cm = -0.2257     CD =  0.01850   =>   CDf =  0.00727    CDp =  0.01123

 Side 1  free  transition at x/c =  0.5430   65
 Side 2  free  transition at x/c =  0.2808   36

   8   rms: 0.2562E-05   max: 0.2715E-04   T at   36  2
       a =  6.000      CL =  1.7318
      Cm = -0.2257     CD =  0.01850   =>   CDf =  0.00727    CDp =  0.01123

 Point added to stored polar  1
 Point written to save file  000257M0.04.log                                 
 Dump file unspecified or not available
 Calculating wake trajectory ...
 Calculating source influence matrix ...

 Solving BL system ...

 Side 1  free  transition at x/c =  0.5430   65
 Side 2  free  transition at x/c =  0.2808   36

   1   rms: 0.1958E+00   max: -.1646E+01   T at   36  2   RLX: 0.304
       a =  7.000      CL =  1.7566
      Cm = -0.2245     CD =  0.01867   =>   CDf =  0.00729    CDp =  0.01138

 Side 1  free  transition at x/c =  0.5366   65
 Side 2  free  transition at x/c =  0.2971   37

   2   rms: 0.3486E+00   max: -.2940E+01   T at   37  2   RLX: 0.170
       a =  7.000      CL =  1.7741
      Cm = -0.2252     CD =  0.01916   =>   CDf =  0.00711    CDp =  0.01205

 Side 1  free  transition at x/c =  0.5347   65
 Side 2  free  transition at x/c =  0.3107   36

   3   rms: 0.1162E+00   max: 0.9402E+00   T at    2  1   RLX: 0.544
       a =  7.000      CL =  1.7782
      Cm = -0.2198     CD =  0.01954   =>   CDf =  0.00736    CDp =  0.01218

 Side 1  free  transition at x/c =  0.5274   65
 Side 2  free  transition at x/c =  0.3351   38

   4   rms: 0.1018E+00   max: -.9496E+00   C at   38  2   RLX: 0.527
       a =  7.000      CL =  1.7939
      Cm = -0.2202     CD =  0.01975   =>   CDf =  0.00716    CDp =  0.01259

 Side 1  free  transition at x/c =  0.5245   65
 Side 2  free  transition at x/c =  0.3565   39

   5   rms: 0.7465E-01   max: -.1044E+01   C at   39  2   RLX: 0.479
       a =  7.000      CL =  1.8019
      Cm = -0.2206     CD =  0.01972   =>   CDf =  0.00708    CDp =  0.01264

 Side 1  free  transition at x/c =  0.5234   65
 Side 2  free  transition at x/c =  0.3711   40

   6   rms: 0.8122E-01   max: -.1234E+01   C at   40  2   RLX: 0.405
       a =  7.000      CL =  1.8063
      Cm = -0.2210     CD =  0.01965   =>   CDf =  0.00705    CDp =  0.01260

 Side 1  free  transition at x/c =  0.5229   65
 Side 2  free  transition at x/c =  0.3861   41

   7   rms: 0.9335E-01   max: -.1541E+01   C at   41  2   RLX: 0.324
       a =  7.000      CL =  1.8086
      Cm = -0.2212     CD =  0.01961   =>   CDf =  0.00703    CDp =  0.01258

 Side 1  free  transition at x/c =  0.5227   65
 Side 2  free  transition at x/c =  0.4059   42

   8   rms: 0.1565E+00   max: -.2995E+01   C at   42  2   RLX: 0.167
       a =  7.000      CL =  1.8098
      Cm = -0.2214     CD =  0.01959   =>   CDf =  0.00699    CDp =  0.01260

 Side 1  free  transition at x/c =  0.5226   65
 Side 2  free  transition at x/c =  0.4218   42

   9   rms: 0.2071E+00   max: -.4030E+01   C at   42  2   RLX: 0.124
       a =  7.000      CL =  1.8106
      Cm = -0.2215     CD =  0.01957   =>   CDf =  0.00695    CDp =  0.01262

 Side 1  free  transition at x/c =  0.5225   65
 Side 2  free  transition at x/c =  0.4350   43

  10   rms: 0.8514E+00   max: -.1491E+02   C at   43  2   RLX: 0.034
       a =  7.000      CL =  1.8109
      Cm = -0.2216     CD =  0.01955   =>   CDf =  0.00692    CDp =  0.01263

 Side 1  free  transition at x/c =  0.5225   65
 Side 2  free  transition at x/c =  0.4395   43

  11   rms: 0.1270E+01   max: -.1989E+02   C at   43  2   RLX: 0.025
       a =  7.000      CL =  1.8111
      Cm = -0.2216     CD =  0.01953   =>   CDf =  0.00689    CDp =  0.01264

 Side 1  free  transition at x/c =  0.5225   65
 Side 2  free  transition at x/c =  0.4587   44

  12   rms: 0.7773E+01   max: -.1131E+03   C at   44  2   RLX: 0.004
       a =  7.000      CL =  1.8115
      Cm = -0.2217     CD =  0.01951   =>   CDf =  0.00686    CDp =  0.01265

 Side 1  free  transition at x/c =  0.5225   65
 Side 2  free  transition at x/c =  0.4676   45

  13   rms: 0.7150E+01   max: -.1078E+03   C at   45  2   RLX: 0.005
       a =  7.000      CL =  1.8117
      Cm = -0.2217     CD =  0.01950   =>   CDf =  0.00685    CDp =  0.01265

 Side 1  free  transition at x/c =  0.5225   65
 Side 2  free  transition at x/c =  0.4893   46

  14   rms: 0.1185E+02   max: -.1770E+03   C at   46  2   RLX: 0.003
       a =  7.000      CL =  1.8119
      Cm = -0.2218     CD =  0.01949   =>   CDf =  0.00683    CDp =  0.01265

 Side 1  free  transition at x/c =  0.5225   65
 Side 2  free  transition at x/c =  0.5126   47

  15   rms: 0.2930E+02   max: -.4306E+03   C at   47  2   RLX: 0.001
       a =  7.000      CL =  1.8121
      Cm = -0.2218     CD =  0.01947   =>   CDf =  0.00681    CDp =  0.01266

 Side 1  free  transition at x/c =  0.5225   65
 Side 2  free  transition at x/c =  0.5354   48

  16   rms: 0.3317E+03   max: -.4859E+04   C at   48  2   RLX: 0.000
       a =  7.000      CL =  1.8122
      Cm = -0.2219     CD =  0.01945   =>   CDf =  0.00679    CDp =  0.01266

 Side 1  free  transition at x/c =  0.5225   65
 Side 2  free  transition at x/c =  0.5573   49

  17   rms: 0.5439E+02   max: 0.7981E+03   C at   49  2   RLX: 0.002
       a =  7.000      CL =  1.8117
      Cm = -0.2217     CD =  0.01950   =>   CDf =  0.00677    CDp =  0.01273

 Side 1  free  transition at x/c =  0.5225   65
 Side 2  free  transition at x/c =  0.5056   47

  18   rms: 0.2053E+02   max: -.3126E+03   C at   47  2   RLX: 0.002
       a =  7.000      CL =  1.8119
      Cm = -0.2218     CD =  0.01947   =>   CDf =  0.00682    CDp =  0.01265

 Side 1  free  transition at x/c =  0.5225   65
 Side 2  free  transition at x/c =  0.5291   48

  19   rms: 0.1050E+03   max: -.1590E+04   C at   48  2   RLX: 0.000
       a =  7.000      CL =  1.8121
      Cm = -0.2218     CD =  0.01946   =>   CDf =  0.00680    CDp =  0.01266

 Side 1  free  transition at x/c =  0.5225   65
 Side 2  free  transition at x/c =  0.5514   49

  20   rms: 0.6210E+02   max: 0.9410E+03   C at   49  2   RLX: 0.002
       a =  7.000      CL =  1.8115
      Cm = -0.2217     CD =  0.01950   =>   CDf =  0.00678    CDp =  0.01273

 Side 1  free  transition at x/c =  0.5225   65
 Side 2  free  transition at x/c =  0.4989   46

  21   rms: 0.1734E+02   max: -.2474E+03   C at   46  2   RLX: 0.002
       a =  7.000      CL =  1.8117
      Cm = -0.2217     CD =  0.01948   =>   CDf =  0.00682    CDp =  0.01265

 Side 1  free  transition at x/c =  0.5225   65
 Side 2  free  transition at x/c =  0.5216   48

  22   rms: 0.4642E+02   max: -.7243E+03   C at   48  2   RLX: 0.001
       a =  7.000      CL =  1.8119
      Cm = -0.2218     CD =  0.01946   =>   CDf =  0.00680    CDp =  0.01266

 Side 1  free  transition at x/c =  0.5225   65
 Side 2  free  transition at x/c =  0.5447   49

  23   rms: 0.1547E+03   max: 0.2406E+04   C at   49  2   RLX: 0.001
       a =  7.000      CL =  1.8113
      Cm = -0.2216     CD =  0.01951   =>   CDf =  0.00678    CDp =  0.01272

 Side 1  free  transition at x/c =  0.5225   65
 Side 2  free  transition at x/c =  0.4912   46

  24   rms: 0.1258E+02   max: -.1866E+03   C at   46  2   RLX: 0.003
       a =  7.000      CL =  1.8115
      Cm = -0.2217     CD =  0.01948   =>   CDf =  0.00683    CDp =  0.01265

 Side 1  free  transition at x/c =  0.5225   65
 Side 2  free  transition at x/c =  0.5146   47

  25   rms: 0.2790E+02   max: -.4074E+03   C at   47  2   RLX: 0.001
       a =  7.000      CL =  1.8117
      Cm = -0.2217     CD =  0.01947   =>   CDf =  0.00681    CDp =  0.01265
 VISCAL:  Convergence failed
 Calculating wake trajectory ...
 Calculating source influence matrix ...

 Solving BL system ...

 Side 1  free  transition at x/c =  0.5225   65
 Side 2  free  transition at x/c =  0.5373   48

   1   rms: 0.1199E+04   max: -.1746E+05   C at   48  2   RLX: 0.000
       a =  8.000      CL =  1.8115
      Cm = -0.2218     CD =  0.01945   =>   CDf =  0.00681    CDp =  0.01264

 Side 1  free  transition at x/c =  0.5225   65
 Side 2  free  transition at x/c =  0.5593   49

   2   rms: 0.4621E+03   max: 0.6737E+04   C at   49  2   RLX: 0.000
       a =  8.000      CL =  1.8109
      Cm = -0.2216     CD =  0.01949   =>   CDf =  0.00679    CDp =  0.01271

 Side 1  free  transition at x/c =  0.5225   65
 Side 2  free  transition at x/c =  0.5073   47

   3   rms: 0.1672E+03   max: -.2533E+04   C at   47  2   RLX: 0.000
       a =  8.000      CL =  1.8111
      Cm = -0.2217     CD =  0.01947   =>   CDf =  0.00684    CDp =  0.01263

 Side 1  free  transition at x/c =  0.5225   65
 Side 2  free  transition at x/c =  0.5307   48

   4   rms: 0.4632E+03   max: -.6924E+04   C at   48  2   RLX: 0.000
       a =  8.000      CL =  1.8113
      Cm = -0.2217     CD =  0.01945   =>   CDf =  0.00681    CDp =  0.01264

 Side 1  free  transition at x/c =  0.5225   65
 Side 2  free  transition at x/c =  0.5531   49

   5   rms: 0.9791E+03   max: 0.1464E+05   C at   49  2   RLX: 0.000
       a =  8.000      CL =  1.8108
      Cm = -0.2216     CD =  0.01950   =>   CDf =  0.00679    CDp =  0.01270

 Side 1  free  transition at x/c =  0.5225   65
 Side 2  free  transition at x/c =  0.5004   47

   6   rms: 0.1291E+03   max: -.2009E+04   C at   47  2   RLX: 0.000
       a =  8.000      CL =  1.8110
      Cm = -0.2216     CD =  0.01947   =>   CDf =  0.00684    CDp =  0.01263

 Side 1  free  transition at x/c =  0.5225   65
 Side 2  free  transition at x/c =  0.5247   48

   7   rms: 0.3319E+03   max: -.5125E+04   C at   48  2   RLX: 0.000
       a =  8.000      CL =  1.8112
      Cm = -0.2217     CD =  0.01946   =>   CDf =  0.00682    CDp =  0.01264

 Side 1  free  transition at x/c =  0.5225   65
 Side 2  free  transition at x/c =  0.5476   49

   8   rms: 0.5763E+04   max: 0.8883E+05   C at   49  2   RLX: 0.000
       a =  8.000      CL =  1.8106
      Cm = -0.2215     CD =  0.01950   =>   CDf =  0.00680    CDp =  0.01271

 Side 1  free  transition at x/c =  0.5225   65
 Side 2  free  transition at x/c =  0.4940   46

   9   rms: 0.1161E+03   max: -.1691E+04   C at   46  2   RLX: 0.000
       a =  8.000      CL =  1.8108
      Cm = -0.2215     CD =  0.01948   =>   CDf =  0.00685    CDp =  0.01263

 Side 1  free  transition at x/c =  0.5225   65
 Side 2  free  transition at x/c =  0.5172   47

  10   rms: 0.2119E+03   max: -.3066E+04   C at   47  2   RLX: 0.000
       a =  8.000      CL =  1.8110
      Cm = -0.2216     CD =  0.01946   =>   CDf =  0.00683    CDp =  0.01264

 Side 1  free  transition at x/c =  0.5225   65
 Side 2  free  transition at x/c =  0.5398   48

  11   rms: 0.6985E+03   max: -.1008E+05   C at   48  2   RLX: 0.000
       a =  8.000      CL =  1.8111
      Cm = -0.2216     CD =  0.01945   =>   CDf =  0.00681    CDp =  0.01264

 Side 1  free  transition at x/c =  0.5225   65
 Side 2  free  transition at x/c =  0.5618   50

  12   rms: 0.2857E+03   max: 0.4567E+04   C at   50  2   RLX: 0.000
       a =  8.000      CL =  1.8106
      Cm = -0.2215     CD =  0.01950   =>   CDf =  0.00678    CDp =  0.01271

 Side 1  free  transition at x/c =  0.5225   65
 Side 2  free  transition at x/c =  0.5109   47

  13   rms: 0.1638E+03   max: -.2429E+04   C at   47  2   RLX: 0.000
       a =  8.000      CL =  1.8107
      Cm = -0.2215     CD =  0.01947   =>   CDf =  0.00683    CDp =  0.01263

 Side 1  free  transition at x/c =  0.5225   65
 Side 2  free  transition at x/c =  0.5341   48

  14   rms: 0.3807E+03   max: -.5619E+04   C at   48  2   RLX: 0.000
       a =  8.000      CL =  1.8109
      Cm = -0.2215     CD =  0.01945   =>   CDf =  0.00681    CDp =  0.01264

 Side 1  free  transition at x/c =  0.5225   65
 Side 2  free  transition at x/c =  0.5564   49

  15   rms: 0.2125E+04   max: 0.3142E+05   C at   49  2   RLX: 0.000
       a =  8.000      CL =  1.8104
      Cm = -0.2214     CD =  0.01949   =>   CDf =  0.00679    CDp =  0.01270

 Side 1  free  transition at x/c =  0.5225   65
 Side 2  free  transition at x/c =  0.5027   47

  16   rms: 0.1311E+03   max: -.2024E+04   C at   47  2   RLX: 0.000
       a =  8.000      CL =  1.8106
      Cm = -0.2214     CD =  0.01947   =>   CDf =  0.00684    CDp =  0.01263

 Side 1  free  transition at x/c =  0.5225   65
 Side 2  free  transition at x/c =  0.5268   48

  17   rms: 0.2307E+03   max: -.3506E+04   C at   48  2   RLX: 0.000
       a =  8.000      CL =  1.8108
      Cm = -0.2215     CD =  0.01945   =>   CDf =  0.00682    CDp =  0.01264

 Side 1  free  transition at x/c =  0.5225   65
 Side 2  free  transition at x/c =  0.5496   49

  18   rms: 0.9235E+03   max: -.1402E+05   C at   49  2   RLX: 0.000
       a =  8.000      CL =  1.8109
      Cm = -0.2215     CD =  0.01944   =>   CDf =  0.00680    CDp =  0.01264

 Side 1  free  transition at x/c =  0.5225   65
 Side 2  free  transition at x/c =  0.5728   50

  19   rms: 0.2399E+03   max: 0.3668E+04   C at   50  2   RLX: 0.000
       a =  8.000      CL =  1.8103
      Cm = -0.2214     CD =  0.01949   =>   CDf =  0.00677    CDp =  0.01271

 Side 1  free  transition at x/c =  0.5225   65
 Side 2  free  transition at x/c =  0.5232   48

  20   rms: 0.2213E+03   max: -.3440E+04   C at   48  2   RLX: 0.000
       a =  8.000      CL =  1.8105
      Cm = -0.2214     CD =  0.01945   =>   CDf =  0.00682    CDp =  0.01263

 Side 1  free  transition at x/c =  0.5224   65
 Side 2  free  transition at x/c =  0.5464   49

  21   rms: 0.5070E+03   max: -.7796E+04   C at   49  2   RLX: 0.000
       a =  8.000      CL =  1.8107
      Cm = -0.2214     CD =  0.01944   =>   CDf =  0.00680    CDp =  0.01264

 Side 1  free  transition at x/c =  0.5224   65
 Side 2  free  transition at x/c =  0.5698   50

  22   rms: 0.2941E+03   max: 0.4553E+04   C at   50  2   RLX: 0.000
       a =  8.000      CL =  1.8101
      Cm = -0.2213     CD =  0.01949   =>   CDf =  0.00678    CDp =  0.01271

 Side 1  free  transition at x/c =  0.5224   65
 Side 2  free  transition at x/c =  0.5194   47

  23   rms: 0.1848E+03   max: -.2653E+04   C at   47  2   RLX: 0.000
       a =  8.000      CL =  1.8102
      Cm = -0.2213     CD =  0.01946   =>   CDf =  0.00682    CDp =  0.01263

 Side 1  free  transition at x/c =  0.5224   65
 Side 2  free  transition at x/c =  0.5423   49

  24   rms: 0.3366E+03   max: -.5299E+04   C at   49  2   RLX: 0.000
       a =  8.000      CL =  1.8104
      Cm = -0.2213     CD =  0.01944   =>   CDf =  0.00680    CDp =  0.01264

 Side 1  free  transition at x/c =  0.5224   65
 Side 2  free  transition at x/c =  0.5661   50

  25   rms: 0.4271E+03   max: 0.6716E+04   C at   50  2   RLX: 0.000
       a =  8.000      CL =  1.8099
      Cm = -0.2212     CD =  0.01949   =>   CDf =  0.00678    CDp =  0.01271
 VISCAL:  Convergence failed
 Calculating wake trajectory ...
 Calculating source influence matrix ...

 Solving BL system ...

 Side 1  free  transition at x/c =  0.5224   65
 Side 2  free  transition at x/c =  0.5149   47

   1   rms: 0.2913E+03   max: -.4256E+04   C at   47  2   RLX: 0.000
       a =  9.000      CL =  1.8091
      Cm = -0.2212     CD =  0.01946   =>   CDf =  0.00684    CDp =  0.01262

 Side 1  free  transition at x/c =  0.5224   65
 Side 2  free  transition at x/c =  0.5379   48

   2   rms: 0.5018E+03   max: -.7302E+04   C at   48  2   RLX: 0.000
       a =  9.000      CL =  1.8093
      Cm = -0.2212     CD =  0.01944   =>   CDf =  0.00682    CDp =  0.01262

 Side 1  free  transition at x/c =  0.5224   65
 Side 2  free  transition at x/c =  0.5601   49

   3   rms: 0.3371E+04   max: -.4920E+05   C at   49  2   RLX: 0.000
       a =  9.000      CL =  1.8094
      Cm = -0.2213     CD =  0.01943   =>   CDf =  0.00680    CDp =  0.01263

 Side 1  free  transition at x/c =  0.5224   65
 Side 2  free  transition at x/c =  0.5823   51

   4   rms: 0.2404E+03   max: 0.3893E+04   C at   51  2   RLX: 0.000
       a =  9.000      CL =  1.8089
      Cm = -0.2211     CD =  0.01948   =>   CDf =  0.00678    CDp =  0.01270

 Side 1  free  transition at x/c =  0.5224   65
 Side 2  free  transition at x/c =  0.5398   48

   5   rms: 0.5013E+03   max: -.7244E+04   C at   48  2   RLX: 0.000
       a =  9.000      CL =  1.8090
      Cm = -0.2212     CD =  0.01944   =>   CDf =  0.00682    CDp =  0.01262

 Side 1  free  transition at x/c =  0.5224   65
 Side 2  free  transition at x/c =  0.5619   50

   6   rms: 0.4086E+04   max: 0.6536E+05   C at   50  2   RLX: 0.000
       a =  9.000      CL =  1.8085
      Cm = -0.2210     CD =  0.01949   =>   CDf =  0.00680    CDp =  0.01269

 Side 1  free  transition at x/c =  0.5224   65
 Side 2  free  transition at x/c =  0.5094   47

   7   rms: 0.2621E+03   max: -.3945E+04   C at   47  2   RLX: 0.000
       a =  9.000      CL =  1.8086
      Cm = -0.2210     CD =  0.01946   =>   CDf =  0.00685    CDp =  0.01261

 Side 1  free  transition at x/c =  0.5224   65
 Side 2  free  transition at x/c =  0.5330   48

   8   rms: 0.3482E+03   max: -.5170E+04   C at   48  2   RLX: 0.000
       a =  9.000      CL =  1.8088
      Cm = -0.2211     CD =  0.01945   =>   CDf =  0.00682    CDp =  0.01262

 Side 1  free  transition at x/c =  0.5224   65
 Side 2  free  transition at x/c =  0.5554   49

   9   rms: 0.8144E+03   max: -.1210E+05   C at   49  2   RLX: 0.000
       a =  9.000      CL =  1.8090
      Cm = -0.2211     CD =  0.01943   =>   CDf =  0.00680    CDp =  0.01263

 Side 1  free  transition at x/c =  0.5224   65
 Side 2  free  transition at x/c =  0.5780   50

  10   rms: 0.6395E+03   max: 0.9506E+04   C at   50  2   RLX: 0.000
       a =  9.000      CL =  1.8084
      Cm = -0.2210     CD =  0.01948   =>   CDf =  0.00678    CDp =  0.01270

 Side 1  free  transition at x/c =  0.5224   65
 Side 2  free  transition at x/c =  0.5274   48

  11   rms: 0.2848E+03   max: -.4322E+04   C at   48  2   RLX: 0.000
       a =  9.000      CL =  1.8086
      Cm = -0.2210     CD =  0.01945   =>   CDf =  0.00683    CDp =  0.01262

 Side 1  free  transition at x/c =  0.5224   65
 Side 2  free  transition at x/c =  0.5504   49

  12   rms: 0.5278E+03   max: -.7998E+04   C at   49  2   RLX: 0.000
       a =  9.000      CL =  1.8088
      Cm = -0.2210     CD =  0.01943   =>   CDf =  0.00681    CDp =  0.01262

 Side 1  free  transition at x/c =  0.5224   65
 Side 2  free  transition at x/c =  0.5733   50

  13   rms: 0.1853E+04   max: 0.2832E+05   C at   50  2   RLX: 0.000
       a =  9.000      CL =  1.8082
      Cm = -0.2209     CD =  0.01948   =>   CDf =  0.00678    CDp =  0.01270

 Side 1  free  transition at x/c =  0.5224   65
 Side 2  free  transition at x/c =  0.5220   48

  14   rms: 0.2776E+03   max: -.4337E+04   C at   48  2   RLX: 0.000
       a =  9.000      CL =  1.8083
      Cm = -0.2209     CD =  0.01945   =>   CDf =  0.00683    CDp =  0.01262

 Side 1  free  transition at x/c =  0.5224   65
 Side 2  free  transition at x/c =  0.5455   49

  15   rms: 0.3736E+03   max: -.5770E+04   C at   49  2   RLX: 0.000
       a =  9.000      CL =  1.8085
      Cm = -0.2209     CD =  0.01944   =>   CDf =  0.00681    CDp =  0.01262

 Side 1  free  transition at x/c =  0.5224   65
 Side 2  free  transition at x/c =  0.5689   50

  16   rms: 0.5191E+04   max: -.8078E+05   C at   50  2   RLX: 0.000
       a =  9.000      CL =  1.8087
      Cm = -0.2210     CD =  0.01942   =>   CDf =  0.00679    CDp =  0.01263

 Side 1  free  transition at x/c =  0.5224   65
 Side 2  free  transition at x/c =  0.5900   51

  17   rms: 0.2572E+03   max: 0.4011E+04   C at   51  2   RLX: 0.000
       a =  9.000      CL =  1.8081
      Cm = -0.2208     CD =  0.01947   =>   CDf =  0.00676    CDp =  0.01271

 Side 1  free  transition at x/c =  0.5224   65
 Side 2  free  transition at x/c =  0.5496   49

  18   rms: 0.4030E+03   max: -.6127E+04   C at   49  2   RLX: 0.000
       a =  9.000      CL =  1.8082
      Cm = -0.2208     CD =  0.01943   =>   CDf =  0.00681    CDp =  0.01262

 Side 1  free  transition at x/c =  0.5223   65
 Side 2  free  transition at x/c =  0.5725   50

  19   rms: 0.2557E+04   max: 0.3890E+05   C at   50  2   RLX: 0.000
       a =  9.000      CL =  1.8077
      Cm = -0.2207     CD =  0.01948   =>   CDf =  0.00678    CDp =  0.01269

 Side 1  free  transition at x/c =  0.5223   65
 Side 2  free  transition at x/c =  0.5208   48

  20   rms: 0.2526E+03   max: -.3966E+04   C at   48  2   RLX: 0.000
       a =  9.000      CL =  1.8079
      Cm = -0.2207     CD =  0.01945   =>   CDf =  0.00684    CDp =  0.01261

 Side 1  free  transition at x/c =  0.5223   65
 Side 2  free  transition at x/c =  0.5446   49

  21   rms: 0.3007E+03   max: -.4662E+04   C at   49  2   RLX: 0.000
       a =  9.000      CL =  1.8080
      Cm = -0.2208     CD =  0.01944   =>   CDf =  0.00681    CDp =  0.01262

 Side 1  free  transition at x/c =  0.5223   65
 Side 2  free  transition at x/c =  0.5680   50

  22   rms: 0.9831E+03   max: -.1536E+05   C at   50  2   RLX: 0.000
       a =  9.000      CL =  1.8082
      Cm = -0.2208     CD =  0.01942   =>   CDf =  0.00679    CDp =  0.01263

 Side 1  free  transition at x/c =  0.5223   65
 Side 2  free  transition at x/c =  0.5895   51

  23   rms: 0.2989E+03   max: 0.4677E+04   C at   51  2   RLX: 0.000
       a =  9.000      CL =  1.8077
      Cm = -0.2206     CD =  0.01947   =>   CDf =  0.00676    CDp =  0.01271

 Side 1  free  transition at x/c =  0.5223   65
 Side 2  free  transition at x/c =  0.5493   49

  24   rms: 0.3205E+03   max: -.4880E+04   C at   49  2   RLX: 0.000
       a =  9.000      CL =  1.8078
      Cm = -0.2206     CD =  0.01943   =>   CDf =  0.00681    CDp =  0.01262

 Side 1  free  transition at x/c =  0.5223   65
 Side 2  free  transition at x/c =  0.5723   50

  25   rms: 0.3455E+04   max: -.5264E+05   C at   50  2   RLX: 0.000
       a =  9.000      CL =  1.8079
      Cm = -0.2207     CD =  0.01941   =>   CDf =  0.00678    CDp =  0.01263
 VISCAL:  Convergence failed
 Calculating wake trajectory ...
 Calculating source influence matrix ...

 Solving BL system ...

 Side 1  free  transition at x/c =  0.5223   65
 Side 2  free  transition at x/c =  0.5933   51

   1   rms: 0.4467E+03   max: 0.6858E+04   C at   51  2   RLX: 0.000
       a = 10.000      CL =  1.8059
      Cm = -0.2205     CD =  0.01946   =>   CDf =  0.00677    CDp =  0.01269

 Side 1  free  transition at x/c =  0.5223   65
 Side 2  free  transition at x/c =  0.5529   49

   2   rms: 0.4854E+03   max: -.7287E+04   C at   49  2   RLX: 0.000
       a = 10.000      CL =  1.8060
      Cm = -0.2205     CD =  0.01943   =>   CDf =  0.00682    CDp =  0.01261

 Side 1  free  transition at x/c =  0.5223   65
 Side 2  free  transition at x/c =  0.5756   50

   3   rms: 0.6438E+04   max: -.9676E+05   C at   50  2   RLX: 0.000
       a = 10.000      CL =  1.8061
      Cm = -0.2205     CD =  0.01941   =>   CDf =  0.00680    CDp =  0.01261

 Side 1  free  transition at x/c =  0.5223   65
 Side 2  free  transition at x/c =  0.5963   51

   4   rms: 0.4639E+03   max: 0.7018E+04   C at   51  2   RLX: 0.000
       a = 10.000      CL =  1.8055
      Cm = -0.2204     CD =  0.01946   =>   CDf =  0.00677    CDp =  0.01269

 Side 1  free  transition at x/c =  0.5223   65
 Side 2  free  transition at x/c =  0.5554   49

   5   rms: 0.4891E+03   max: -.7270E+04   C at   49  2   RLX: 0.000
       a = 10.000      CL =  1.8056
      Cm = -0.2204     CD =  0.01942   =>   CDf =  0.00682    CDp =  0.01261

 Side 1  free  transition at x/c =  0.5223   65
 Side 2  free  transition at x/c =  0.5779   50

   6   rms: 0.7413E+04   max: -.1103E+06   C at   50  2   RLX: 0.000
       a = 10.000      CL =  1.8058
      Cm = -0.2204     CD =  0.01940   =>   CDf =  0.00679    CDp =  0.01261

 Side 1  free  transition at x/c =  0.5223   65
 Side 2  free  transition at x/c =  0.5984   51

   7   rms: 0.4893E+03   max: 0.7330E+04   C at   51  2   RLX: 0.000
       a = 10.000      CL =  1.8052
      Cm = -0.2202     CD =  0.01946   =>   CDf =  0.00677    CDp =  0.01269

 Side 1  free  transition at x/c =  0.5223   65
 Side 2  free  transition at x/c =  0.5569   49

   8   rms: 0.4807E+03   max: -.7105E+04   C at   49  2   RLX: 0.000
       a = 10.000      CL =  1.8053
      Cm = -0.2202     CD =  0.01942   =>   CDf =  0.00682    CDp =  0.01261

 Side 1  free  transition at x/c =  0.5223   65
 Side 2  free  transition at x/c =  0.5793   50

   9   rms: 0.5274E+04   max: -.7804E+05   C at   50  2   RLX: 0.000
       a = 10.000      CL =  1.8054
      Cm = -0.2203     CD =  0.01940   =>   CDf =  0.00679    CDp =  0.01261

 Side 1  free  transition at x/c =  0.5223   65
 Side 2  free  transition at x/c =  0.5997   51

  10   rms: 0.5268E+03   max: 0.7851E+04   C at   51  2   RLX: 0.000
       a = 10.000      CL =  1.8049
      Cm = -0.2201     CD =  0.01945   =>   CDf =  0.00676    CDp =  0.01269

 Side 1  free  transition at x/c =  0.5223   65
 Side 2  free  transition at x/c =  0.5575   49

  11   rms: 0.4611E+03   max: -.6800E+04   C at   49  2   RLX: 0.000
       a = 10.000      CL =  1.8050
      Cm = -0.2201     CD =  0.01942   =>   CDf =  0.00681    CDp =  0.01261

 Side 1  free  transition at x/c =  0.5223   65
 Side 2  free  transition at x/c =  0.5798   50

  12   rms: 0.3416E+04   max: -.5044E+05   C at   50  2   RLX: 0.000
       a = 10.000      CL =  1.8051
      Cm = -0.2201     CD =  0.01940   =>   CDf =  0.00679    CDp =  0.01261

 Side 1  free  transition at x/c =  0.5223   65
 Side 2  free  transition at x/c =  0.6001   51

  13   rms: 0.5802E+03   max: 0.8639E+04   C at   51  2   RLX: 0.000
       a = 10.000      CL =  1.8045
      Cm = -0.2200     CD =  0.01945   =>   CDf =  0.00676    CDp =  0.01269

 Side 1  free  transition at x/c =  0.5222   65
 Side 2  free  transition at x/c =  0.5572   49

  14   rms: 0.4338E+03   max: -.6403E+04   C at   49  2   RLX: 0.000
       a = 10.000      CL =  1.8046
      Cm = -0.2200     CD =  0.01942   =>   CDf =  0.00682    CDp =  0.01260

 Side 1  free  transition at x/c =  0.5222   65
 Side 2  free  transition at x/c =  0.5796   50

  15   rms: 0.2241E+04   max: -.3311E+05   C at   50  2   RLX: 0.000
       a = 10.000      CL =  1.8048
      Cm = -0.2200     CD =  0.01940   =>   CDf =  0.00679    CDp =  0.01261

 Side 1  free  transition at x/c =  0.5222   65
 Side 2  free  transition at x/c =  0.5998   51

  16   rms: 0.6616E+03   max: 0.9871E+04   C at   51  2   RLX: 0.000
       a = 10.000      CL =  1.8042
      Cm = -0.2198     CD =  0.01945   =>   CDf =  0.00676    CDp =  0.01269

 Side 1  free  transition at x/c =  0.5222   65
 Side 2  free  transition at x/c =  0.5563   49

  17   rms: 0.4020E+03   max: -.5955E+04   C at   49  2   RLX: 0.000
       a = 10.000      CL =  1.8043
      Cm = -0.2198     CD =  0.01942   =>   CDf =  0.00682    CDp =  0.01260

 Side 1  free  transition at x/c =  0.5222   65
 Side 2  free  transition at x/c =  0.5787   50

  18   rms: 0.1544E+04   max: -.2289E+05   C at   50  2   RLX: 0.000
       a = 10.000      CL =  1.8045
      Cm = -0.2199     CD =  0.01940   =>   CDf =  0.00679    CDp =  0.01261

 Side 1  free  transition at x/c =  0.5222   65
 Side 2  free  transition at x/c =  0.5989   51

  19   rms: 0.7966E+03   max: 0.1194E+05   C at   51  2   RLX: 0.000
       a = 10.000      CL =  1.8039
      Cm = -0.2197     CD =  0.01945   =>   CDf =  0.00677    CDp =  0.01269

 Side 1  free  transition at x/c =  0.5222   65
 Side 2  free  transition at x/c =  0.5548   49

  20   rms: 0.3701E+03   max: -.5513E+04   C at   49  2   RLX: 0.000
       a = 10.000      CL =  1.8040
      Cm = -0.2197     CD =  0.01942   =>   CDf =  0.00682    CDp =  0.01260

 Side 1  free  transition at x/c =  0.5222   65
 Side 2  free  transition at x/c =  0.5773   50

  21   rms: 0.1111E+04   max: -.1657E+05   C at   50  2   RLX: 0.000
       a = 10.000      CL =  1.8041
      Cm = -0.2197     CD =  0.01940   =>   CDf =  0.00679    CDp =  0.01261

 Side 1  free  transition at x/c =  0.5222   65
 Side 2  free  transition at x/c =  0.5975   51

  22   rms: 0.1049E+04   max: 0.1583E+05   C at   51  2   RLX: 0.000
       a = 10.000      CL =  1.8036
      Cm = -0.2196     CD =  0.01945   =>   CDf =  0.00677    CDp =  0.01269

 Side 1  free  transition at x/c =  0.5222   65
 Side 2  free  transition at x/c =  0.5529   49

  23   rms: 0.3355E+03   max: -.5035E+04   C at   49  2   RLX: 0.000
       a = 10.000      CL =  1.8036
      Cm = -0.2196     CD =  0.01942   =>   CDf =  0.00682    CDp =  0.01260

 Side 1  free  transition at x/c =  0.5222   65
 Side 2  free  transition at x/c =  0.5755   50

  24   rms: 0.8334E+03   max: -.1251E+05   C at   50  2   RLX: 0.000
       a = 10.000      CL =  1.8038
      Cm = -0.2196     CD =  0.01940   =>   CDf =  0.00680    CDp =  0.01261

 Side 1  free  transition at x/c =  0.5222   65
 Side 2  free  transition at x/c =  0.5958   51

  25   rms: 0.1667E+04   max: 0.2537E+05   C at   51  2   RLX: 0.000
       a = 10.000      CL =  1.8032
      Cm = -0.2194     CD =  0.01946   =>   CDf =  0.00677    CDp =  0.01269
 VISCAL:  Convergence failed

 Sequence halted since previous  4 points did not converge
 Last-converged  alpha =   6.000    CL =   1.73175

.OPERva   c>  
 XFOIL   c>  
0.1
resp: 
 ===================================================
  XFOIL Version 6.97
  Copyright (C) 2000   Mark Drela, Harold Youngren

  This software comes with ABSOLUTELY NO WARRANTY,
    subject to the GNU General Public License.

  Caveat computor
 ===================================================

 File  xfoil.def  not found

   QUIT    Exit program

  .OPER    Direct operating point(s)
  .MDES    Complex mapping design routine
  .QDES    Surface speed design routine
  .GDES    Geometry design routine

   SAVE f  Write airfoil to labeled coordinate file
   PSAV f  Write airfoil to plain coordinate file
   ISAV f  Write airfoil to ISES coordinate file
   MSAV f  Write airfoil to MSES coordinate file
   REVE    Reverse written-airfoil node ordering
   DELI i  Change written-airfoil file delimiters

   LOAD f  Read buffer airfoil from coordinate file
   NACA i  Set NACA 4,5-digit airfoil and buffer airfoil
   INTE    Set buffer airfoil by interpolating two airfoils
   NORM    Buffer airfoil normalization toggle
   HALF    Halve the number of points in buffer airfoil
   XYCM rr Change CM reference location, currently  0.25000 0.00000

   BEND    Display structural properties of current airfoil

   PCOP    Set current-airfoil panel nodes directly from buffer airfoil points
   PANE    Set current-airfoil panel nodes ( 160 ) based on curvature
  .PPAR    Show/change paneling

  .PLOP    Plotting options

   WDEF f  Write  current-settings file
   RDEF f  Reread current-settings file
   NAME s  Specify new airfoil name
   NINC    Increment name version number

   Z       Zoom    | (available in all menus)
   U       Unzoom  | 

 XFOIL   c>   ...............................................

  G raphics-enable flag:        T
  S ize of plot object          10.00"
  A spect ratio of plot object   0.5500
  P age dimensions              11.00 x  8.50"
  M argins from page edges       0.00",  0.00"
  F ont size (relative)          0.0150
  W indow/screen size fraction   0.8000
  B lowup input method:        Cursor    
  O rientation of plot:        Landscape 
  C olor PostScript output?     F

      Option, Value   (or <Return>)    c>   ...............................................

  G raphics-enable flag:        F
  S ize of plot object          10.00"
  A spect ratio of plot object   0.5500
  P age dimensions              11.00 x  8.50"
  M argins from page edges       0.00",  0.00"
  F ont size (relative)          0.0150
  W indow/screen size fraction   0.8000
  B lowup input method:        Cursor    
  O rientation of plot:        Landscape 
  C olor PostScript output?     F

      Option, Value   (or <Return>)    c>  
 XFOIL   c>  
 Labeled airfoil file.  Name:  000257                                          

 Number of input coordinate points: 200
 Clockwise ordering
 Max thickness =     0.128668  at x =   0.193
 Max camber    =     0.107482  at x =   0.422

  LE  x,y  =  -0.00001   0.00094  |   Chord =   0.99989
  TE  x,y  =   0.99988   0.00006  |

 Current airfoil nodes set from buffer airfoil nodes ( 200 )

 XFOIL   c>  
 You are working with the buffer airfoil

.GDES   c>  
  i       x        y      angle
   2   0.9990   0.0004   -0.035
   3   0.9978   0.0010    0.039
   4   0.9961   0.0018    0.014
   5   0.9938   0.0028    0.046
   6   0.9911   0.0040    0.056
   7   0.9880   0.0054    0.032
   8   0.9843   0.0071    0.065
   9   0.9801   0.0089    0.081
  10   0.9755   0.0110    0.064
  11   0.9704   0.0132    0.094
  12   0.9649   0.0157    0.094
  13   0.9589   0.0183    0.103
  14   0.9524   0.0212    0.126
  15   0.9455   0.0242    0.125
  16   0.9382   0.0273    0.142
  17   0.9304   0.0307    0.157
  18   0.9222   0.0342    0.173
  19   0.9135   0.0378    0.175
  20   0.9045   0.0416    0.196
  21   0.8951   0.0455    0.216
  22   0.8853   0.0496    0.222
  23   0.8751   0.0537    0.255
  24   0.8645   0.0580    0.253
  25   0.8536   0.0623    0.285
  26   0.8423   0.0667    0.297
  27   0.8307   0.0711    0.319
  28   0.8187   0.0757    0.339
  29   0.8065   0.0802    0.363
  30   0.7939   0.0848    0.377
  31   0.7810   0.0894    0.408
  32   0.7679   0.0939    0.427
  33   0.7545   0.0985    0.448
  34   0.7409   0.1030    0.477
  35   0.7270   0.1075    0.494
  36   0.7129   0.1119    0.530
  37   0.6986   0.1162    0.545
  38   0.6841   0.1205    0.576
  39   0.6694   0.1246    0.603
  40   0.6545   0.1286    0.624
  41   0.6395   0.1325    0.654
  42   0.6243   0.1362    0.678
  43   0.6091   0.1398    0.709
  44   0.5937   0.1432    0.731
  45   0.5782   0.1464    0.754
  46   0.5627   0.1494    0.788
  47   0.5471   0.1522    0.804
  48   0.5314   0.1548    0.834
  49   0.5157   0.1572    0.859
  50   0.5000   0.1593    0.876
  51   0.4843   0.1611    0.906
  52   0.4686   0.1628    0.924
  53   0.4529   0.1641    0.948
  54   0.4373   0.1652    0.964
  55   0.4218   0.1661    0.983
  56   0.4063   0.1666    1.004
  57   0.3909   0.1669    1.020
  58   0.3757   0.1669    1.036
  59   0.3605   0.1667    1.050
  60   0.3455   0.1661    1.067
  61   0.3306   0.1653    1.076
  62   0.3159   0.1642    1.091
  63   0.3014   0.1629    1.105
  64   0.2871   0.1613    1.115
  65   0.2730   0.1595    1.122
  66   0.2591   0.1574    1.142
  67   0.2455   0.1550    1.148
  68   0.2321   0.1524    1.164
  69   0.2190   0.1496    1.177
  70   0.2061   0.1466    1.192
  71   0.1935   0.1434    1.212
  72   0.1813   0.1399    1.224
  73   0.1693   0.1363    1.251
  74   0.1577   0.1325    1.275
  75   0.1464   0.1285    1.311
  76   0.1355   0.1244    1.333
  77   0.1249   0.1201    1.386
  78   0.1147   0.1157    1.426
  79   0.1049   0.1112    1.483
  80   0.0955   0.1065    1.538
  81   0.0865   0.1017    1.625
  82   0.0778   0.0968    1.694
  83   0.0696   0.0919    1.798
  84   0.0618   0.0868    1.912
  85   0.0545   0.0817    2.024
  86   0.0476   0.0765    2.177
  87   0.0411   0.0712    2.337
  88   0.0351   0.0659    2.514
  89   0.0296   0.0606    2.718
  90   0.0245   0.0552    2.937
  91   0.0199   0.0498    3.182
  92   0.0157   0.0443    3.452
  93   0.0120   0.0388    3.707
  94   0.0089   0.0333    4.007
  95   0.0062   0.0278    4.266
  96   0.0039   0.0222    4.522
  97   0.0022   0.0167    4.758
  98   0.0010   0.0111    4.922
  99   0.0002   0.0056    5.035
 100   0.0000   0.0000    7.941
 101   0.0002  -0.0026   10.634
 102   0.0010  -0.0052   10.237
 103   0.0022  -0.0077    9.625
 104   0.0039  -0.0101    8.860
 105   0.0062  -0.0123    8.077
 106   0.0089  -0.0143    7.281
 107   0.0120  -0.0162    6.478
 108   0.0157  -0.0178    5.768
 109   0.0199  -0.0191    5.092
 110   0.0245  -0.0201    4.493
 111   0.0296  -0.0208    3.944
 112   0.0351  -0.0212    3.462
 113   0.0411  -0.0213    3.023
 114   0.0476  -0.0210    2.612
 115   0.0545  -0.0204    2.271
 116   0.0618  -0.0195    1.940
 117   0.0696  -0.0182    1.653
 118   0.0778  -0.0167    1.378
 119   0.0865  -0.0148    1.144
 120   0.0955  -0.0126    0.919
 121   0.1049  -0.0102    0.707
 122   0.1147  -0.0076    0.529
 123   0.1249  -0.0048    0.346
 124   0.1355  -0.0018    0.189
 125   0.1464   0.0014    0.046
 126   0.1577   0.0046   -0.104
 127   0.1693   0.0080   -0.229
 128   0.1813   0.0113   -0.337
 129   0.1935   0.0147   -0.453
 130   0.2061   0.0181   -0.541
 131   0.2190   0.0214   -0.639
 132   0.2321   0.0246   -0.707
 133   0.2455   0.0277   -0.774
 134   0.2591   0.0307   -0.834
 135   0.2730   0.0335   -0.878
 136   0.2871   0.0362   -0.913
 137   0.3014   0.0386   -0.940
 138   0.3159   0.0409   -0.954
 139   0.3306   0.0429   -0.960
 140   0.3455   0.0447   -0.958
 141   0.3605   0.0462   -0.949
 142   0.3757   0.0475   -0.923
 143   0.3909   0.0486   -0.896
 144   0.4063   0.0494   -0.868
 145   0.4218   0.0500   -0.824
 146   0.4373   0.0504   -0.776
 147   0.4529   0.0506   -0.737
 148   0.4686   0.0506   -0.679
 149   0.4843   0.0504   -0.627
 150   0.5000   0.0500   -0.576
 151   0.5157   0.0495   -0.516
 152   0.5314   0.0488   -0.469
 153   0.5471   0.0480   -0.411
 154   0.5627   0.0470   -0.362
 155   0.5782   0.0460   -0.313
 156   0.5937   0.0449   -0.265
 157   0.6091   0.0438   -0.228
 158   0.6243   0.0426   -0.187
 159   0.6395   0.0413   -0.157
 160   0.6545   0.0400   -0.118
 161   0.6694   0.0387   -0.103
 162   0.6841   0.0374   -0.079
 163   0.6986   0.0361   -0.059
 164   0.7129   0.0348   -0.058
 165   0.7270   0.0335   -0.040
 166   0.7409   0.0322   -0.043
 167   0.7545   0.0309   -0.045
 168   0.7679   0.0296   -0.052
 169   0.7810   0.0284   -0.056
 170   0.7939   0.0271   -0.068
 171   0.8065   0.0259   -0.087
 172   0.8187   0.0247   -0.101
 173   0.8307   0.0235   -0.122
 174   0.8423   0.0223   -0.136
 175   0.8536   0.0211   -0.160
 176   0.8645   0.0199   -0.182
 177   0.8751   0.0187   -0.202
 178   0.8853   0.0175   -0.218
 179   0.8951   0.0164   -0.237
 180   0.9045   0.0152   -0.251
 181   0.9135   0.0140   -0.276
 182   0.9222   0.0129   -0.277
 183   0.9304   0.0118   -0.293
 184   0.9382   0.0107   -0.296
 185   0.9455   0.0096   -0.301
 186   0.9524   0.0085   -0.301
 187   0.9589   0.0075   -0.296
 188   0.9649   0.0065   -0.296
 189   0.9704   0.0055   -0.270
 190   0.9755   0.0047   -0.275
 191   0.9801   0.0038   -0.255
 192   0.9843   0.0031   -0.229
 193   0.9880   0.0024   -0.197
 194   0.9911   0.0018   -0.188
 195   0.9938   0.0012   -0.176
 196   0.9961   0.0008   -0.096
 197   0.9978   0.0004   -0.110
 198   0.9990   0.0002   -0.107
 199   0.9998   0.0000    0.090

 Maximum panel corner angle = 10.634   at  i,x,y  = 101   0.0002  -0.0026

 Enter corner angle criterion for refinement (deg):   5.317
 Enter type of spline parameter (1=uniform, 2=arclength):   1
 Enter refinement x limits:  -0.10000   1.10000
 Number of points added:           18
 Max thickness =     0.128634  at x =   0.194
 Max camber    =     0.108047  at x =   0.422

 Maximum panel corner angle =  5.132   at  i,x,y  = 103   0.0001  -0.0019

.GDES   c>  
 Buffer airfoil is not identical to current airfoil

 XFOIL   c>  
 Blunt trailing edge.  Gap =  0.00027

 Paneling parameters used...
   Number of panel nodes       160
   Panel bunching parameter    1.000
   TE/LE panel density ratio   0.150
   Refined-area/LE panel density ratio    0.200
   Top    side refined area x/c limits  1.000 1.000
   Bottom side refined area x/c limits  1.000 1.000

 XFOIL   c>  
.OPERi   c>   Current iteration limit:          20

Enter new iteration limit   i>  
Enter new iteration limit   i>  
Enter new iteration limit   i>  
.OPERi   c>  
 M  =    0.0000
 Re =  0.3000E+06

.OPERv   c>  
 Sonic Cp =    -66.86      Sonic Q/Qinf =     9.138


.OPERv   c>  
 Polar  1 newly created for accumulation
 Airfoil archived with polar: 000257                                          

Enter  polar save filename  OR  <return> for no file   s>  
 New polar save file available

Enter  polar dump filename  OR  <return> for no file   s>  
 Polar dump file will NOT be written

 Polar accumulation enabled

.OPERva   c>   Calculating unit vorticity distributions ...
 Calculating wake trajectory ...
 Calculating source influence matrix ...

 Solving BL system ...

 Initializing BL ...
    side            1  ...
 MRCHUE: Inverse mode at  57     Hk =   4.051
 MRCHUE: Inverse mode at  58     Hk =   4.811
 MRCHUE: Inverse mode at  59     Hk =   5.556
 MRCHUE: Inverse mode at  60     Hk =   6.290
 MRCHUE: Inverse mode at  61     Hk =   7.017
 MRCHUE: Inverse mode at  62     Hk =   7.738
 MRCHUE: Inverse mode at  63     Hk =   8.456
 MRCHUE: Inverse mode at  64     Hk =   9.172
 MRCHUE: Inverse mode at  65     Hk =   6.160
 MRCHUE: Inverse mode at  66     Hk =   4.155
 MRCHUE: Inverse mode at  67     Hk =   2.829
 MRCHUE: Convergence failed at  87  side 1    Res =  0.2336E+02
    side            2  ...
 MRCHUE: Inverse mode at  24     Hk =   4.100
 MRCHUE: Inverse mode at  25     Hk =   4.717
 MRCHUE: Inverse mode at  26     Hk =   5.353
 MRCHUE: Inverse mode at  27     Hk =   6.019
 MRCHUE: Inverse mode at  28     Hk =   6.723
 MRCHUE: Inverse mode at  29     Hk =   7.472
 MRCHUE: Inverse mode at  30     Hk =   8.270
 MRCHUE: Inverse mode at  31     Hk =   9.110
 MRCHUE: Inverse mode at  32     Hk =   9.844
 MRCHUE: Inverse mode at  33     Hk =   5.485
 MRCHUE: Inverse mode at  34     Hk =   3.680
 MRCHUE: Inverse mode at  35     Hk =   2.500
 MRCHUE: Convergence failed at  75  side 2    Res =  0.4006E+01

 MRCHDU: Convergence failed at  87  side 1    Res =  0.2087E+02
 Side 1  free  transition at x/c =  0.5932   65
 Side 2  free  transition at x/c =  0.1756   32

   1   rms: 0.8186E+00   max: 0.7967E+01   T at   32  2   RLX: 0.085
       a =  2.000      CL =  1.5109
      Cm = -0.2710     CD =  0.00710   =>   CDf =  0.00795    CDp = -0.00085

 Side 1  free  transition at x/c =  0.5945   64
 Side 2  free  transition at x/c =  0.1650   33

   2   rms: 0.4192E+00   max: 0.1567E+01   D at   78  2   RLX: 0.363
       a =  2.000      CL =  1.4360
      Cm = -0.2545     CD =  0.01006   =>   CDf =  0.00755    CDp =  0.00251

 Side 1  free  transition at x/c =  0.6010   64
 Side 2  free  transition at x/c =  0.1600   32

   3   rms: 0.1854E+00   max: 0.1193E+01   T at   32  2   RLX: 0.587
       a =  2.000      CL =  1.3847
      Cm = -0.2426     CD =  0.01392   =>   CDf =  0.00763    CDp =  0.00629

 Side 1  free  transition at x/c =  0.6116   65
 Side 2  free  transition at x/c =  0.1504   32

   4   rms: 0.1347E+00   max: -.6913E+00   D at   35  2   RLX: 0.723
       a =  2.000      CL =  1.3572
      Cm = -0.2364     CD =  0.01537   =>   CDf =  0.00753    CDp =  0.00784

 Side 1  free  transition at x/c =  0.6157   65
 Side 2  free  transition at x/c =  0.1492   32

   5   rms: 0.3372E-01   max: -.3407E+00   D at   35  2
       a =  2.000      CL =  1.3482
      Cm = -0.2343     CD =  0.01639   =>   CDf =  0.00751    CDp =  0.00888

 Side 1  free  transition at x/c =  0.6174   65
 Side 2  free  transition at x/c =  0.1468   32

   6   rms: 0.6549E-02   max: -.1160E+00   D at   35  2
       a =  2.000      CL =  1.3477
      Cm = -0.2342     CD =  0.01655   =>   CDf =  0.00751    CDp =  0.00904

 Side 1  free  transition at x/c =  0.6173   65
 Side 2  free  transition at x/c =  0.1462   32

   7   rms: 0.2052E-02   max: 0.1646E-01   T at   32  2
       a =  2.000      CL =  1.3477
      Cm = -0.2341     CD =  0.01658   =>   CDf =  0.00753    CDp =  0.00904

 Side 1  free  transition at x/c =  0.6173   65
 Side 2  free  transition at x/c =  0.1461   32

   8   rms: 0.8373E-04   max: 0.7328E-03   T at   32  2
       a =  2.000      CL =  1.3477
      Cm = -0.2341     CD =  0.01658   =>   CDf =  0.00753    CDp =  0.00904

 Point added to stored polar  1
 Point written to save file  000257M0.1.log                                  
 Dump file unspecified or not available
 Calculating wake trajectory ...
 Calculating source influence matrix ...

 Solving BL system ...

 Side 1  free  transition at x/c =  0.6173   65
 Side 2  free  transition at x/c =  0.1461   32

   1   rms: 0.3318E+00   max: -.2385E+01   T at   32  2   RLX: 0.210
       a =  3.000      CL =  1.3711
      Cm = -0.2345     CD =  0.01615   =>   CDf =  0.00755    CDp =  0.00860

 Side 1  free  transition at x/c =  0.6135   65
 Side 2  free  transition at x/c =  0.1533   32

   2   rms: 0.1332E+00   max: -.8699E+00   T at   32  2   RLX: 0.575
       a =  3.000      CL =  1.4213
      Cm = -0.2345     CD =  0.01674   =>   CDf =  0.00748    CDp =  0.00927

 Side 1  free  transition at x/c =  0.6070   64
 Side 2  free  transition at x/c =  0.1627   33

   3   rms: 0.5135E-01   max: -.3444E+00   T at   33  2
       a =  3.000      CL =  1.4461
      Cm = -0.2321     CD =  0.01684   =>   CDf =  0.00740    CDp =  0.00945

 Side 1  free  transition at x/c =  0.5980   65
 Side 2  free  transition at x/c =  0.1678   32

   4   rms: 0.2749E-01   max: -.1724E+00   D at   32  2
       a =  3.000      CL =  1.4521
      Cm = -0.2331     CD =  0.01679   =>   CDf =  0.00752    CDp =  0.00927

 Side 1  free  transition at x/c =  0.5991   65
 Side 2  free  transition at x/c =  0.1692   32

   5   rms: 0.8829E-03   max: 0.1032E-01   D at   33  2
       a =  3.000      CL =  1.4520
      Cm = -0.2331     CD =  0.01680   =>   CDf =  0.00751    CDp =  0.00929

 Side 1  free  transition at x/c =  0.5991   65
 Side 2  free  transition at x/c =  0.1691   32

[...]
      Cm = -0.2215     CD =  0.01973   =>   CDf =  0.00684    CDp =  0.01289

 Side 1  free  transition at x/c =  0.5206   65
 Side 2  free  transition at x/c =  0.5465   49

   7   rms: 0.1484E+05   max: -.2309E+06   C at   49  2   RLX: 0.000
       a =  8.000      CL =  1.8170
      Cm = -0.2216     CD =  0.01971   =>   CDf =  0.00682    CDp =  0.01289

 Side 1  free  transition at x/c =  0.5206   65
 Side 2  free  transition at x/c =  0.5705   50

   8   rms: 0.1856E+03   max: 0.2876E+04   C at   50  2   RLX: 0.001
       a =  8.000      CL =  1.8164
      Cm = -0.2214     CD =  0.01976   =>   CDf =  0.00679    CDp =  0.01297

 Side 1  free  transition at x/c =  0.5206   65
 Side 2  free  transition at x/c =  0.5222   48

   9   rms: 0.2364E+03   max: -.3686E+04   C at   48  2   RLX: 0.000
       a =  8.000      CL =  1.8166
      Cm = -0.2214     CD =  0.01973   =>   CDf =  0.00684    CDp =  0.01289

 Side 1  free  transition at x/c =  0.5206   65
 Side 2  free  transition at x/c =  0.5472   49

  10   rms: 0.3437E+04   max: -.5334E+05   C at   49  2   RLX: 0.000
       a =  8.000      CL =  1.8168
      Cm = -0.2215     CD =  0.01971   =>   CDf =  0.00681    CDp =  0.01289

 Side 1  free  transition at x/c =  0.5206   65
 Side 2  free  transition at x/c =  0.5712   50

  11   rms: 0.2000E+03   max: 0.3093E+04   C at   50  2   RLX: 0.000
       a =  8.000      CL =  1.8162
      Cm = -0.2213     CD =  0.01976   =>   CDf =  0.00679    CDp =  0.01297

 Side 1  free  transition at x/c =  0.5205   65
 Side 2  free  transition at x/c =  0.5222   48

  12   rms: 0.2240E+03   max: -.3494E+04   C at   48  2   RLX: 0.000
       a =  8.000      CL =  1.8164
      Cm = -0.2214     CD =  0.01972   =>   CDf =  0.00684    CDp =  0.01289

 Side 1  free  transition at x/c =  0.5205   65
 Side 2  free  transition at x/c =  0.5472   49

  13   rms: 0.1483E+04   max: -.2302E+05   C at   49  2   RLX: 0.000
       a =  8.000      CL =  1.8166
      Cm = -0.2214     CD =  0.01971   =>   CDf =  0.00681    CDp =  0.01289

 Side 1  free  transition at x/c =  0.5205   65
 Side 2  free  transition at x/c =  0.5711   50

  14   rms: 0.2206E+03   max: 0.3414E+04   C at   50  2   RLX: 0.000
       a =  8.000      CL =  1.8160
      Cm = -0.2213     CD =  0.01976   =>   CDf =  0.00679    CDp =  0.01297

 Side 1  free  transition at x/c =  0.5205   65
 Side 2  free  transition at x/c =  0.5214   48

  15   rms: 0.2053E+03   max: -.3212E+04   C at   48  2   RLX: 0.000
       a =  8.000      CL =  1.8162
      Cm = -0.2213     CD =  0.01972   =>   CDf =  0.00684    CDp =  0.01289

 Side 1  free  transition at x/c =  0.5205   65
 Side 2  free  transition at x/c =  0.5466   49

  16   rms: 0.8412E+03   max: -.1309E+05   C at   49  2   RLX: 0.000
       a =  8.000      CL =  1.8164
      Cm = -0.2213     CD =  0.01971   =>   CDf =  0.00681    CDp =  0.01289

 Side 1  free  transition at x/c =  0.5205   65
 Side 2  free  transition at x/c =  0.5706   50

  17   rms: 0.2509E+03   max: 0.3894E+04   C at   50  2   RLX: 0.000
       a =  8.000      CL =  1.8158
      Cm = -0.2212     CD =  0.01976   =>   CDf =  0.00679    CDp =  0.01297

 Side 1  free  transition at x/c =  0.5205   65
 Side 2  free  transition at x/c =  0.5202   48

  18   rms: 0.1838E+03   max: -.2888E+04   C at   48  2   RLX: 0.000
       a =  8.000      CL =  1.8160
      Cm = -0.2212     CD =  0.01972   =>   CDf =  0.00684    CDp =  0.01289

 Side 1  free  transition at x/c =  0.5205   65
 Side 2  free  transition at x/c =  0.5456   49

  19   rms: 0.5503E+03   max: -.8595E+04   C at   49  2   RLX: 0.000
       a =  8.000      CL =  1.8162
      Cm = -0.2213     CD =  0.01971   =>   CDf =  0.00682    CDp =  0.01289

 Side 1  free  transition at x/c =  0.5205   65
 Side 2  free  transition at x/c =  0.5698   50

  20   rms: 0.2987E+03   max: 0.4653E+04   C at   50  2   RLX: 0.000
       a =  8.000      CL =  1.8156
      Cm = -0.2211     CD =  0.01976   =>   CDf =  0.00679    CDp =  0.01297

 Side 1  free  transition at x/c =  0.5205   65
 Side 2  free  transition at x/c =  0.5186   47

  21   rms: 0.1972E+03   max: -.2838E+04   C at   47  2   RLX: 0.000
       a =  8.000      CL =  1.8158
      Cm = -0.2211     CD =  0.01972   =>   CDf =  0.00684    CDp =  0.01289

 Side 1  free  transition at x/c =  0.5205   65
 Side 2  free  transition at x/c =  0.5418   49

  22   rms: 0.3342E+03   max: -.5292E+04   C at   49  2   RLX: 0.000
       a =  8.000      CL =  1.8160
      Cm = -0.2212     CD =  0.01971   =>   CDf =  0.00682    CDp =  0.01289

 Side 1  free  transition at x/c =  0.5205   65
 Side 2  free  transition at x/c =  0.5666   50

  23   rms: 0.4227E+03   max: 0.6673E+04   C at   50  2   RLX: 0.000
       a =  8.000      CL =  1.8154
      Cm = -0.2210     CD =  0.01976   =>   CDf =  0.00679    CDp =  0.01296

 Side 1  free  transition at x/c =  0.5205   65
 Side 2  free  transition at x/c =  0.5145   47

  24   rms: 0.1655E+03   max: -.2420E+04   C at   47  2   RLX: 0.000
       a =  8.000      CL =  1.8156
      Cm = -0.2210     CD =  0.01973   =>   CDf =  0.00684    CDp =  0.01288

 Side 1  free  transition at x/c =  0.5205   65
 Side 2  free  transition at x/c =  0.5380   48

  25   rms: 0.2621E+03   max: -.3824E+04   C at   48  2   RLX: 0.000
       a =  8.000      CL =  1.8157
      Cm = -0.2211     CD =  0.01971   =>   CDf =  0.00682    CDp =  0.01289
 VISCAL:  Convergence failed
 Calculating wake trajectory ...
 Calculating source influence matrix ...

 Solving BL system ...

 Side 1  free  transition at x/c =  0.5205   65
 Side 2  free  transition at x/c =  0.5615   50

   1   rms: 0.2080E+04   max: 0.3351E+05   C at   50  2   RLX: 0.000
       a =  9.000      CL =  1.8143
      Cm = -0.2209     CD =  0.01976   =>   CDf =  0.00682    CDp =  0.01294

 Side 1  free  transition at x/c =  0.5205   65
 Side 2  free  transition at x/c =  0.5083   47

   2   rms: 0.2835E+03   max: -.4280E+04   C at   47  2   RLX: 0.000
       a =  9.000      CL =  1.8144
      Cm = -0.2210     CD =  0.01973   =>   CDf =  0.00686    CDp =  0.01286

 Side 1  free  transition at x/c =  0.5205   65
 Side 2  free  transition at x/c =  0.5323   48

   3   rms: 0.3581E+03   max: -.5338E+04   C at   48  2   RLX: 0.000
       a =  9.000      CL =  1.8146
      Cm = -0.2210     CD =  0.01971   =>   CDf =  0.00684    CDp =  0.01287

 Side 1  free  transition at x/c =  0.5205   65
 Side 2  free  transition at x/c =  0.5562   49

   4   rms: 0.1078E+04   max: -.1605E+05   C at   49  2   RLX: 0.000
       a =  9.000      CL =  1.8148
      Cm = -0.2210     CD =  0.01970   =>   CDf =  0.00682    CDp =  0.01288

 Side 1  free  transition at x/c =  0.5205   65
 Side 2  free  transition at x/c =  0.5797   50

   5   rms: 0.5556E+03   max: 0.8257E+04   C at   50  2   RLX: 0.000
       a =  9.000      CL =  1.8142
      Cm = -0.2209     CD =  0.01975   =>   CDf =  0.00680    CDp =  0.01295

 Side 1  free  transition at x/c =  0.5205   65
 Side 2  free  transition at x/c =  0.5286   48

   6   rms: 0.3077E+03   max: -.4652E+04   C at   48  2   RLX: 0.000
       a =  9.000      CL =  1.8144
      Cm = -0.2209     CD =  0.01972   =>   CDf =  0.00684    CDp =  0.01287

 Side 1  free  transition at x/c =  0.5205   65
 Side 2  free  transition at x/c =  0.5528   49

   7   rms: 0.7006E+03   max: -.1057E+05   C at   49  2   RLX: 0.000
       a =  9.000      CL =  1.8146
      Cm = -0.2210     CD =  0.01970   =>   CDf =  0.00682    CDp =  0.01288

 Side 1  free  transition at x/c =  0.5205   65
 Side 2  free  transition at x/c =  0.5765   50

   8   rms: 0.9650E+03   max: 0.1465E+05   C at   50  2   RLX: 0.000
       a =  9.000      CL =  1.8140
      Cm = -0.2208     CD =  0.01975   =>   CDf =  0.00680    CDp =  0.01295

 Side 1  free  transition at x/c =  0.5205   65
 Side 2  free  transition at x/c =  0.5248   48

   9   rms: 0.3082E+03   max: -.4764E+04   C at   48  2   RLX: 0.000
       a =  9.000      CL =  1.8141
      Cm = -0.2208     CD =  0.01972   =>   CDf =  0.00685    CDp =  0.01287

 Side 1  free  transition at x/c =  0.5205   65
 Side 2  free  transition at x/c =  0.5495   49

  10   rms: 0.4983E+03   max: -.7612E+04   C at   49  2   RLX: 0.000
       a =  9.000      CL =  1.8143
      Cm = -0.2209     CD =  0.01970   =>   CDf =  0.00683    CDp =  0.01287

 Side 1  free  transition at x/c =  0.5205   65
 Side 2  free  transition at x/c =  0.5735   50

  11   rms: 0.2030E+04   max: 0.3121E+05   C at   50  2   RLX: 0.000
       a =  9.000      CL =  1.8137
      Cm = -0.2207     CD =  0.01975   =>   CDf =  0.00680    CDp =  0.01295

 Side 1  free  transition at x/c =  0.5205   65
 Side 2  free  transition at x/c =  0.5211   48

  12   rms: 0.2604E+03   max: -.4081E+04   C at   48  2   RLX: 0.000
       a =  9.000      CL =  1.8139
      Cm = -0.2207     CD =  0.01972   =>   CDf =  0.00685    CDp =  0.01287

 Side 1  free  transition at x/c =  0.5205   65
 Side 2  free  transition at x/c =  0.5463   49

  13   rms: 0.3788E+03   max: -.5857E+04   C at   49  2   RLX: 0.000
       a =  9.000      CL =  1.8140
      Cm = -0.2208     CD =  0.01970   =>   CDf =  0.00683    CDp =  0.01287

 Side 1  free  transition at x/c =  0.5205   65
 Side 2  free  transition at x/c =  0.5706   50

  14   rms: 0.7752E+04   max: -.1206E+06   C at   50  2   RLX: 0.000
       a =  9.000      CL =  1.8142
      Cm = -0.2208     CD =  0.01968   =>   CDf =  0.00680    CDp =  0.01288

 Side 1  free  transition at x/c =  0.5205   65
 Side 2  free  transition at x/c =  0.5923   51

  15   rms: 0.2365E+03   max: 0.3662E+04   C at   51  2   RLX: 0.000
       a =  9.000      CL =  1.8136
      Cm = -0.2206     CD =  0.01973   =>   CDf =  0.00678    CDp =  0.01296

 Side 1  free  transition at x/c =  0.5204   65
 Side 2  free  transition at x/c =  0.5546   49

  16   rms: 0.4915E+03   max: -.7365E+04   C at   49  2   RLX: 0.000
       a =  9.000      CL =  1.8138
      Cm = -0.2206     CD =  0.01969   =>   CDf =  0.00682    CDp =  0.01287

 Side 1  free  transition at x/c =  0.5204   65
 Side 2  free  transition at x/c =  0.5781   50

  17   rms: 0.1278E+04   max: 0.1914E+05   C at   50  2   RLX: 0.000
       a =  9.000      CL =  1.8132
      Cm = -0.2205     CD =  0.01974   =>   CDf =  0.00680    CDp =  0.01295

 Side 1  free  transition at x/c =  0.5204   65
 Side 2  free  transition at x/c =  0.5255   48

  18   rms: 0.2734E+03   max: -.4215E+04   C at   48  2   RLX: 0.000
       a =  9.000      CL =  1.8134
      Cm = -0.2205     CD =  0.01971   =>   CDf =  0.00685    CDp =  0.01286

 Side 1  free  transition at x/c =  0.5204   65
 Side 2  free  transition at x/c =  0.5501   49

  19   rms: 0.3614E+03   max: -.5507E+04   C at   49  2   RLX: 0.000
       a =  9.000      CL =  1.8136
      Cm = -0.2206     CD =  0.01970   =>   CDf =  0.00682    CDp =  0.01287

 Side 1  free  transition at x/c =  0.5204   65
 Side 2  free  transition at x/c =  0.5741   50

  20   rms: 0.1820E+04   max: -.2795E+05   C at   50  2   RLX: 0.000
       a =  9.000      CL =  1.8137
      Cm = -0.2206     CD =  0.01968   =>   CDf =  0.00680    CDp =  0.01288

 Side 1  free  transition at x/c =  0.5204   65
 Side 2  free  transition at x/c =  0.5957   51

  21   rms: 0.2575E+03   max: 0.3917E+04   C at   51  2   RLX: 0.000
       a =  9.000      CL =  1.8132
      Cm = -0.2204     CD =  0.01973   =>   CDf =  0.00677    CDp =  0.01296

 Side 1  free  transition at x/c =  0.5204   65
 Side 2  free  transition at x/c =  0.5582   49

  22   rms: 0.4416E+03   max: -.6529E+04   C at   49  2   RLX: 0.000
       a =  9.000      CL =  1.8133
      Cm = -0.2204     CD =  0.01969   =>   CDf =  0.00682    CDp =  0.01287

 Side 1  free  transition at x/c =  0.5204   65
 Side 2  free  transition at x/c =  0.5814   50

  23   rms: 0.2171E+04   max: 0.3211E+05   C at   50  2   RLX: 0.000
       a =  9.000      CL =  1.8128
      Cm = -0.2203     CD =  0.01974   =>   CDf =  0.00679    CDp =  0.01295

 Side 1  free  transition at x/c =  0.5204   65
 Side 2  free  transition at x/c =  0.5285   48

  24   rms: 0.2278E+03   max: -.3446E+04   C at   48  2   RLX: 0.000
       a =  9.000      CL =  1.8129
      Cm = -0.2203     CD =  0.01971   =>   CDf =  0.00684    CDp =  0.01286

 Side 1  free  transition at x/c =  0.5204   65
 Side 2  free  transition at x/c =  0.5528   49

  25   rms: 0.3301E+03   max: -.4981E+04   C at   49  2   RLX: 0.000
       a =  9.000      CL =  1.8131
      Cm = -0.2204     CD =  0.01969   =>   CDf =  0.00682    CDp =  0.01287
 VISCAL:  Convergence failed
 Calculating wake trajectory ...
 Calculating source influence matrix ...

 Solving BL system ...

 Side 1  free  transition at x/c =  0.5204   65
 Side 2  free  transition at x/c =  0.5764   50

   1   rms: 0.5018E+04   max: -.7571E+05   C at   50  2   RLX: 0.000
       a = 10.000      CL =  1.8117
      Cm = -0.2204     CD =  0.01967   =>   CDf =  0.00681    CDp =  0.01286

 Side 1  free  transition at x/c =  0.5204   65
 Side 2  free  transition at x/c =  0.5980   51

   2   rms: 0.4313E+03   max: 0.6493E+04   C at   51  2   RLX: 0.000
       a = 10.000      CL =  1.8111
      Cm = -0.2202     CD =  0.01972   =>   CDf =  0.00678    CDp =  0.01294

 Side 1  free  transition at x/c =  0.5204   65
 Side 2  free  transition at x/c =  0.5597   49

   3   rms: 0.5600E+03   max: -.8231E+04   C at   49  2   RLX: 0.000
       a = 10.000      CL =  1.8112
      Cm = -0.2202     CD =  0.01969   =>   CDf =  0.00683    CDp =  0.01286

 Side 1  free  transition at x/c =  0.5204   65
 Side 2  free  transition at x/c =  0.5828   51

   4   rms: 0.6921E+03   max: 0.1127E+05   C at   51  2   RLX: 0.000
       a = 10.000      CL =  1.8107
      Cm = -0.2201     CD =  0.01974   =>   CDf =  0.00681    CDp =  0.01293

 Side 1  free  transition at x/c =  0.5204   65
 Side 2  free  transition at x/c =  0.5424   49

   5   rms: 0.3271E+03   max: -.5130E+04   C at   49  2   RLX: 0.000
       a = 10.000      CL =  1.8108
      Cm = -0.2200     CD =  0.01970   =>   CDf =  0.00685    CDp =  0.01285

 Side 1  free  transition at x/c =  0.5204   65
 Side 2  free  transition at x/c =  0.5671   50

   6   rms: 0.6072E+03   max: -.9571E+04   C at   50  2   RLX: 0.000
       a = 10.000      CL =  1.8109
      Cm = -0.2201     CD =  0.01968   =>   CDf =  0.00682    CDp =  0.01286

 Side 1  free  transition at x/c =  0.5204   65
 Side 2  free  transition at x/c =  0.5895   51

   7   rms: 0.6486E+03   max: 0.1021E+05   C at   51  2   RLX: 0.000
       a = 10.000      CL =  1.8104
      Cm = -0.2199     CD =  0.01973   =>   CDf =  0.00680    CDp =  0.01294

 Side 1  free  transition at x/c =  0.5204   65
 Side 2  free  transition at x/c =  0.5501   49

   8   rms: 0.3606E+03   max: -.5494E+04   C at   49  2   RLX: 0.000
       a = 10.000      CL =  1.8104
      Cm = -0.2199     CD =  0.01969   =>   CDf =  0.00684    CDp =  0.01285

 Side 1  free  transition at x/c =  0.5203   65
 Side 2  free  transition at x/c =  0.5739   50

   9   rms: 0.1112E+04   max: -.1694E+05   C at   50  2   RLX: 0.000
       a = 10.000      CL =  1.8106
      Cm = -0.2199     CD =  0.01967   =>   CDf =  0.00681    CDp =  0.01286

 Side 1  free  transition at x/c =  0.5203   65
 Side 2  free  transition at x/c =  0.5956   51

  10   rms: 0.6242E+03   max: 0.9528E+04   C at   51  2   RLX: 0.000
       a = 10.000      CL =  1.8100
      Cm = -0.2197     CD =  0.01972   =>   CDf =  0.00679    CDp =  0.01294

 Side 1  free  transition at x/c =  0.5203   65
 Side 2  free  transition at x/c =  0.5561   49

  11   rms: 0.3882E+03   max: -.5781E+04   C at   49  2   RLX: 0.000
       a = 10.000      CL =  1.8100
      Cm = -0.2197     CD =  0.01969   =>   CDf =  0.00683    CDp =  0.01285

 Side 1  free  transition at x/c =  0.5203   65
 Side 2  free  transition at x/c =  0.5793   50

  12   rms: 0.1349E+04   max: -.2011E+05   C at   50  2   RLX: 0.000
       a = 10.000      CL =  1.8102
      Cm = -0.2198     CD =  0.01966   =>   CDf =  0.00681    CDp =  0.01285

 Side 1  free  transition at x/c =  0.5203   65
 Side 2  free  transition at x/c =  0.6005   51

  13   rms: 0.6194E+03   max: 0.9230E+04   C at   51  2   RLX: 0.000
       a = 10.000      CL =  1.8096
      Cm = -0.2196     CD =  0.01972   =>   CDf =  0.00678    CDp =  0.01294

 Side 1  free  transition at x/c =  0.5203   65
 Side 2  free  transition at x/c =  0.5603   49

  14   rms: 0.4063E+03   max: -.5954E+04   C at   49  2   RLX: 0.000
       a = 10.000      CL =  1.8096
      Cm = -0.2196     CD =  0.01968   =>   CDf =  0.00683    CDp =  0.01285

 Side 1  free  transition at x/c =  0.5203   65
 Side 2  free  transition at x/c =  0.5832   51

  15   rms: 0.2179E+04   max: 0.3537E+05   C at   51  2   RLX: 0.000
       a = 10.000      CL =  1.8091
      Cm = -0.2194     CD =  0.01974   =>   CDf =  0.00681    CDp =  0.01293

 Side 1  free  transition at x/c =  0.5203   65
 Side 2  free  transition at x/c =  0.5413   49

  16   rms: 0.2801E+03   max: -.4443E+04   C at   49  2   RLX: 0.000
       a = 10.000      CL =  1.8091
      Cm = -0.2194     CD =  0.01969   =>   CDf =  0.00685    CDp =  0.01285

 Side 1  free  transition at x/c =  0.5203   65
 Side 2  free  transition at x/c =  0.5660   50

  17   rms: 0.3750E+03   max: -.5932E+04   C at   50  2   RLX: 0.000
       a = 10.000      CL =  1.8093
      Cm = -0.2194     CD =  0.01967   =>   CDf =  0.00682    CDp =  0.01285

 Side 1  free  transition at x/c =  0.5203   65
 Side 2  free  transition at x/c =  0.5883   51

  18   rms: 0.2829E+04   max: 0.4481E+05   C at   51  2   RLX: 0.000
       a = 10.000      CL =  1.8088
      Cm = -0.2193     CD =  0.01973   =>   CDf =  0.00680    CDp =  0.01293

 Side 1  free  transition at x/c =  0.5203   65
 Side 2  free  transition at x/c =  0.5469   49

  19   rms: 0.2643E+03   max: -.4073E+04   C at   49  2   RLX: 0.000
       a = 10.000      CL =  1.8088
      Cm = -0.2192     CD =  0.01969   =>   CDf =  0.00684    CDp =  0.01285

 Side 1  free  transition at x/c =  0.5203   65
 Side 2  free  transition at x/c =  0.5709   50

  20   rms: 0.5011E+03   max: -.7718E+04   C at   50  2   RLX: 0.000
       a = 10.000      CL =  1.8089
      Cm = -0.2193     CD =  0.01967   =>   CDf =  0.00682    CDp =  0.01285

 Side 1  free  transition at x/c =  0.5203   65
 Side 2  free  transition at x/c =  0.5927   51

  21   rms: 0.3143E+04   max: 0.4875E+05   C at   51  2   RLX: 0.000
       a = 10.000      CL =  1.8083
      Cm = -0.2191     CD =  0.01973   =>   CDf =  0.00679    CDp =  0.01293

 Side 1  free  transition at x/c =  0.5203   65
 Side 2  free  transition at x/c =  0.5512   49

  22   rms: 0.2684E+03   Got result {'DD': 0.01666, 'Dmin': 0.01658, 'LL': -1.4466}
Completed successfully in 3.47 seconds. [{'DD': 0.01666, 'Dmin': 0.01658, 'LL': -1.4466}]
max: -.4069E+04   C at   49  2   RLX: 0.000
       a = 10.000      CL =  1.8083
      Cm = -0.2190     CD =  0.01969   =>   CDf =  0.00684    CDp =  0.01285

 Side 1  free  transition at x/c =  0.5203   65
 Side 2  free  transition at x/c =  0.5747   50

  23   rms: 0.5023E+03   max: -.7619E+04   C at   50  2   RLX: 0.000
       a = 10.000      CL =  1.8084
      Cm = -0.2191     CD =  0.01967   =>   CDf =  0.00681    CDp =  0.01285

 Side 1  free  transition at x/c =  0.5203   65
 Side 2  free  transition at x/c =  0.5961   51

  24   rms: 0.4061E+04   max: 0.6195E+05   C at   51  2   RLX: 0.000
       a = 10.000      CL =  1.8078
      Cm = -0.2189     CD =  0.01972   =>   CDf =  0.00679    CDp =  0.01293

 Side 1  free  transition at x/c =  0.5203   65
 Side 2  free  transition at x/c =  0.5542   49

  25   rms: 0.2673E+03   max: -.4007E+04   C at   49  2   RLX: 0.000
       a = 10.000      CL =  1.8078
      Cm = -0.2188     CD =  0.01968   =>   CDf =  0.00684    CDp =  0.01285
 VISCAL:  Convergence failed

 Sequence halted since previous  4 points did not converge
 Last-converged  alpha =   6.000    CL =   1.73593

.OPERva   c>  
 XFOIL   c>  
