Job launching after 0.29 seconds in submission.
Running python job.
Changed into dir /home/simonx/Documents/Udacity/Projects/capstone/PESM_NSGA2_CST_XFoil
Importing evaluationFunctionXFoil.py
Running evaluationFunctionXFoil.main()
0
1
2
0.04
resp: 
 ===================================================
  XFOIL Version 6.97
  Copyright (C) 2000   Mark Drela, Harold Youngren

  This software comes with ABSOLUTELY NO WARRANTY,
    subject to the GNU General Public License.

  Caveat computor
 ===================================================

 File  xfoil.def  not found

   QUIT    Exit program

  .OPER    Direct operating point(s)
  .MDES    Complex mapping design routine
  .QDES    Surface speed design routine
  .GDES    Geometry design routine

   SAVE f  Write airfoil to labeled coordinate file
   PSAV f  Write airfoil to plain coordinate file
   ISAV f  Write airfoil to ISES coordinate file
   MSAV f  Write airfoil to MSES coordinate file
   REVE    Reverse written-airfoil node ordering
   DELI i  Change written-airfoil file delimiters

   LOAD f  Read buffer airfoil from coordinate file
   NACA i  Set NACA 4,5-digit airfoil and buffer airfoil
   INTE    Set buffer airfoil by interpolating two airfoils
   NORM    Buffer airfoil normalization toggle
   HALF    Halve the number of points in buffer airfoil
   XYCM rr Change CM reference location, currently  0.25000 0.00000

   BEND    Display structural properties of current airfoil

   PCOP    Set current-airfoil panel nodes directly from buffer airfoil points
   PANE    Set current-airfoil panel nodes ( 160 ) based on curvature
  .PPAR    Show/change paneling

  .PLOP    Plotting options

   WDEF f  Write  current-settings file
   RDEF f  Reread current-settings file
   NAME s  Specify new airfoil name
   NINC    Increment name version number

   Z       Zoom    | (available in all menus)
   U       Unzoom  | 

 XFOIL   c>   ...............................................

  G raphics-enable flag:        T
  S ize of plot object          10.00"
  A spect ratio of plot object   0.5500
  P age dimensions              11.00 x  8.50"
  M argins from page edges       0.00",  0.00"
  F ont size (relative)          0.0150
  W indow/screen size fraction   0.8000
  B lowup input method:        Cursor    
  O rientation of plot:        Landscape 
  C olor PostScript output?     F

      Option, Value   (or <Return>)    c>   ...............................................

  G raphics-enable flag:        F
  S ize of plot object          10.00"
  A spect ratio of plot object   0.5500
  P age dimensions              11.00 x  8.50"
  M argins from page edges       0.00",  0.00"
  F ont size (relative)          0.0150
  W indow/screen size fraction   0.8000
  B lowup input method:        Cursor    
  O rientation of plot:        Landscape 
  C olor PostScript output?     F

      Option, Value   (or <Return>)    c>  
 XFOIL   c>  
 Labeled airfoil file.  Name:  000182                                          

 Number of input coordinate points: 200
 Clockwise ordering
 Max thickness =     0.193814  at x =   0.232
 Max camber    =     0.046911  at x =   0.453

  LE  x,y  =  -0.00000  -0.00048  |   Chord =   0.99988
  TE  x,y  =   0.99988   0.00003  |

 Current airfoil nodes set from buffer airfoil nodes ( 200 )

 XFOIL   c>  
 You are working with the buffer airfoil

.GDES   c>  
  i       x        y      angle
   2   0.9990   0.0003   -0.015
   3   0.9978   0.0006    0.024
   4   0.9961   0.0011   -0.007
   5   0.9938   0.0017    0.005
   6   0.9911   0.0024   -0.001
   7   0.9880   0.0033    0.004
   8   0.9843   0.0043   -0.001
   9   0.9801   0.0055   -0.005
  10   0.9755   0.0067    0.003
  11   0.9704   0.0081   -0.001
  12   0.9649   0.0097   -0.005
  13   0.9589   0.0113    0.005
  14   0.9524   0.0131   -0.004
  15   0.9455   0.0150    0.000
  16   0.9382   0.0170    0.001
  17   0.9304   0.0192    0.001
  18   0.9222   0.0215   -0.000
  19   0.9135   0.0238    0.003
  20   0.9045   0.0263    0.004
  21   0.8951   0.0289    0.004
  22   0.8853   0.0316    0.014
  23   0.8751   0.0344    0.016
  24   0.8645   0.0373    0.023
  25   0.8536   0.0403    0.021
  26   0.8423   0.0434    0.036
  27   0.8307   0.0466    0.045
  28   0.8187   0.0499    0.055
  29   0.8065   0.0532    0.065
  30   0.7939   0.0566    0.076
  31   0.7810   0.0600    0.097
  32   0.7679   0.0635    0.109
  33   0.7545   0.0671    0.129
  34   0.7409   0.0707    0.149
  35   0.7270   0.0743    0.167
  36   0.7129   0.0779    0.200
  37   0.6986   0.0815    0.218
  38   0.6841   0.0851    0.247
  39   0.6694   0.0887    0.281
  40   0.6545   0.0923    0.304
  41   0.6395   0.0958    0.339
  42   0.6243   0.0992    0.374
  43   0.6091   0.1026    0.412
  44   0.5937   0.1059    0.446
  45   0.5782   0.1090    0.484
  46   0.5627   0.1121    0.525
  47   0.5471   0.1150    0.562
  48   0.5314   0.1178    0.608
  49   0.5157   0.1204    0.646
  50   0.5000   0.1228    0.685
  51   0.4843   0.1250    0.735
  52   0.4686   0.1270    0.768
  53   0.4529   0.1288    0.811
  54   0.4373   0.1304    0.850
  55   0.4218   0.1317    0.892
  56   0.4063   0.1328    0.922
  57   0.3909   0.1337    0.966
  58   0.3757   0.1342    0.996
  59   0.3605   0.1345    1.028
  60   0.3455   0.1345    1.051
  61   0.3306   0.1343    1.082
  62   0.3159   0.1338    1.105
  63   0.3014   0.1330    1.127
  64   0.2871   0.1319    1.136
  65   0.2730   0.1306    1.160
  66   0.2591   0.1290    1.167
  67   0.2455   0.1271    1.178
  68   0.2321   0.1250    1.177
  69   0.2190   0.1227    1.194
  70   0.2061   0.1201    1.187
  71   0.1935   0.1174    1.193
  72   0.1813   0.1144    1.191
  73   0.1693   0.1112    1.198
  74   0.1577   0.1079    1.196
  75   0.1464   0.1044    1.206
  76   0.1355   0.1007    1.205
  77   0.1249   0.0969    1.223
  78   0.1147   0.0931    1.237
  79   0.1049   0.0891    1.265
  80   0.0955   0.0850    1.286
  81   0.0865   0.0808    1.332
  82   0.0778   0.0766    1.390
  83   0.0696   0.0724    1.461
  84   0.0618   0.0681    1.537
  85   0.0545   0.0638    1.646
  86   0.0476   0.0595    1.782
  87   0.0411   0.0551    1.946
  88   0.0351   0.0508    2.126
  89   0.0296   0.0465    2.375
  90   0.0245   0.0422    2.644
  91   0.0199   0.0379    2.973
  92   0.0157   0.0336    3.381
  93   0.0120   0.0293    3.793
  94   0.0089   0.0251    4.324
  95   0.0062   0.0209    4.845
  96   0.0039   0.0167    5.400
  97   0.0022   0.0125    5.939
  98   0.0010   0.0083    6.371
  99   0.0002   0.0042    6.675
 100   0.0000   0.0000    5.878
 101   0.0002  -0.0057    4.961
 102   0.0010  -0.0114    4.962
 103   0.0022  -0.0170    4.978
 104   0.0039  -0.0225    4.965
 105   0.0062  -0.0279    4.957
 106   0.0089  -0.0331    4.947
 107   0.0120  -0.0381    4.878
 108   0.0157  -0.0430    4.823
 109   0.0199  -0.0476    4.725
 110   0.0245  -0.0519    4.582
 111   0.0296  -0.0560    4.421
 112   0.0351  -0.0598    4.244
 113   0.0411  -0.0633    4.020
 114   0.0476  -0.0665    3.801
 115   0.0545  -0.0693    3.553
 116   0.0618  -0.0718    3.305
 117   0.0696  -0.0739    3.052
 118   0.0778  -0.0757    2.813
 119   0.0865  -0.0772    2.562
 120   0.0955  -0.0783    2.337
 121   0.1049  -0.0790    2.102
 122   0.1147  -0.0795    1.896
 123   0.1249  -0.0796    1.697
 124   0.1355  -0.0794    1.505
 125   0.1464  -0.0789    1.324
 126   0.1577  -0.0781    1.156
 127   0.1693  -0.0771    1.004
 128   0.1813  -0.0758    0.852
 129   0.1935  -0.0743    0.720
 130   0.2061  -0.0727    0.591
 131   0.2190  -0.0708    0.473
 132   0.2321  -0.0688    0.363
 133   0.2455  -0.0667    0.261
 134   0.2591  -0.0644    0.161
 135   0.2730  -0.0621    0.082
 136   0.2871  -0.0597   -0.010
 137   0.3014  -0.0573   -0.077
 138   0.3159  -0.0549   -0.145
 139   0.3306  -0.0525   -0.209
 140   0.3455  -0.0501   -0.258
 141   0.3605  -0.0478   -0.313
 142   0.3757  -0.0455   -0.350
 143   0.3909  -0.0433   -0.386
 144   0.4063  -0.0412   -0.421
 145   0.4218  -0.0392   -0.435
 146   0.4373  -0.0373   -0.462
 147   0.4529  -0.0355   -0.471
 148   0.4686  -0.0339   -0.471
 149   0.4843  -0.0323   -0.479
 150   0.5000  -0.0309   -0.471
 151   0.5157  -0.0297   -0.464
 152   0.5314  -0.0286   -0.443
 153   0.5471  -0.0275   -0.428
 154   0.5627  -0.0267   -0.406
 155   0.5782  -0.0259   -0.374
 156   0.5937  -0.0252   -0.346
 157   0.6091  -0.0246   -0.307
 158   0.6243  -0.0241   -0.276
 159   0.6395  -0.0237   -0.234
 160   0.6545  -0.0234   -0.191
 161   0.6694  -0.0231   -0.151
 162   0.6841  -0.0228   -0.102
 163   0.6986  -0.0226   -0.056
 164   0.7129  -0.0224   -0.016
 165   0.7270  -0.0222    0.038
 166   0.7409  -0.0220    0.078
 167   0.7545  -0.0218    0.124
 168   0.7679  -0.0215    0.169
 169   0.7810  -0.0213    0.209
 170   0.7939  -0.0210    0.256
 171   0.8065  -0.0206    0.289
 172   0.8187  -0.0202    0.325
 173   0.8307  -0.0197    0.364
 174   0.8423  -0.0191    0.389
 175   0.8536  -0.0185    0.421
 176   0.8645  -0.0179    0.441
 177   0.8751  -0.0172    0.466
 178   0.8853  -0.0164    0.481
 179   0.8951  -0.0155    0.496
 180   0.9045  -0.0147    0.498
 181   0.9135  -0.0137    0.511
 182   0.9222  -0.0128    0.506
 183   0.9304  -0.0118    0.509
 184   0.9382  -0.0108    0.497
 185   0.9455  -0.0098    0.493
 186   0.9524  -0.0088    0.467
 187   0.9589  -0.0077    0.458
 188   0.9649  -0.0068    0.442
 189   0.9704  -0.0058    0.399
 190   0.9755  -0.0049    0.382
 191   0.9801  -0.0040    0.360
 192   0.9843  -0.0033    0.316
 193   0.9880  -0.0025    0.276
 194   0.9911  -0.0019    0.255
 195   0.9938  -0.0013    0.198
 196   0.9961  -0.0009    0.197
 197   0.9978  -0.0005    0.115
 198   0.9990  -0.0002    0.047
 199   0.9998  -0.0001    0.058

 Maximum panel corner angle =  6.675   at  i,x,y  =  99   0.0002   0.0042

 Enter corner angle criterion for refinement (deg):   3.338
 Enter type of spline parameter (1=uniform, 2=arclength):   1
 Enter refinement x limits:  -0.10000   1.10000
 Number of points added:           48
 Max thickness =     0.193829  at x =   0.232
 Max camber    =     0.046651  at x =   0.453

 Maximum panel corner angle =  3.052   at  i,x,y  = 165   0.0696  -0.0739

.GDES   c>  
 Buffer airfoil is not identical to current airfoil

 XFOIL   c>  
 Blunt trailing edge.  Gap =  0.00026

 Paneling parameters used...
   Number of panel nodes       160
   Panel bunching parameter    1.000
   TE/LE panel density ratio   0.150
   Refined-area/LE panel density ratio    0.200
   Top    side refined area x/c limits  1.000 1.000
   Bottom side refined area x/c limits  1.000 1.000

 XFOIL   c>  
Enter output filename   s>  
 XFOIL   c>  
.OPERi   c>   Current iteration limit:          20

Enter new iteration limit   i>  
Enter new iteration limit   i>  
Enter new iteration limit   i>  
.OPERi   c>  
 M  =    0.0000
 Re =  0.3000E+06

.OPERv   c>  
 Sonic Cp =   -420.65      Sonic Q/Qinf =    22.825


.OPERv   c>  
 Polar  1 newly created for accumulation
 Airfoil archived with polar: 000182                                          

Enter  polar save filename  OR  <return> for no file   s>  
 New polar save file available

Enter  polar dump filename  OR  <return> for no file   s>  
 Polar dump file will NOT be written

 Polar accumulation enabled

.OPERva   c>   Calculating unit vorticity distributions ...
 Calculating wake trajectory ...
 Calculating source influence matrix ...

 Solving BL system ...

 Initializing BL ...
    side            1  ...
 MRCHUE: Inverse mode at  56     Hk =   4.135
 MRCHUE: Inverse mode at  57     Hk =   4.928
 MRCHUE: Inverse mode at  58     Hk =   5.710
 MRCHUE: Inverse mode at  59     Hk =   6.485
 MRCHUE: Inverse mode at  60     Hk =   7.257
 MRCHUE: Inverse mode at  61     Hk =   8.031
 MRCHUE: Inverse mode at  62     Hk =   8.807
 MRCHUE: Inverse mode at  63     Hk =   8.804
 MRCHUE: Inverse mode at  64     Hk =   5.300
 MRCHUE: Inverse mode at  65     Hk =   3.508
 MRCHUE: Convergence failed at  84  side 1    Res =  0.9909E+02
    side            2  ...
 MRCHUE: Inverse mode at  35     Hk =   3.977
 MRCHUE: Inverse mode at  36     Hk =   4.767
 MRCHUE: Inverse mode at  37     Hk =   5.572
 MRCHUE: Inverse mode at  38     Hk =   6.404
 MRCHUE: Inverse mode at  39     Hk =   7.270
 MRCHUE: Inverse mode at  40     Hk =   8.179
 MRCHUE: Inverse mode at  41     Hk =   9.135
 MRCHUE: Inverse mode at  42     Hk =   8.133
 MRCHUE: Inverse mode at  43     Hk =   4.069
 MRCHUE: Inverse mode at  44     Hk =   2.500
 MRCHUE: Convergence failed at  78  side 2    Res =  0.1186E+02
 MRCHUE: Convergence failed at  80  side 2    Res =  0.5336E-01

 MRCHDU: Convergence failed at  84  side 1    Res =  0.1002E+03
 MRCHDU: Convergence failed at  78  side 2    Res =  0.1719E+01
 MRCHDU: Convergence failed at  80  side 2    Res =  0.5334E-01
 Side 1  free  transition at x/c =  0.5507   63
 Side 2  free  transition at x/c =  0.2440   42

   1   rms: 0.8819E+00   max: 0.4535E+01   D at   80  2   RLX: 0.331
       a =  2.000      CL =  0.6360
      Cm = -0.0983     CD =  0.00473   =>   CDf =  0.00842    CDp = -0.00369

 Side 1  free  transition at x/c =  0.5564   64
 Side 2  free  transition at x/c =  0.2466   42

   2   rms: 0.3676E+00   max: 0.1693E+01   D at   81  2   RLX: 0.886
       a =  2.000      CL =  0.6003
      Cm = -0.0906     CD =  0.01114   =>   CDf =  0.00850    CDp =  0.00265

 Side 1  free  transition at x/c =  0.5620   64
 Side 2  free  transition at x/c =  0.2471   42

   3   rms: 0.3548E-01   max: -.2289E+00   D at   81  2
       a =  2.000      CL =  0.5840
      Cm = -0.0873     CD =  0.01539   =>   CDf =  0.00834    CDp =  0.00705

 Side 1  free  transition at x/c =  0.5622   64
 Side 2  free  transition at x/c =  0.2457   42

   4   rms: 0.2572E-02   max: -.2816E-01   D at   81  2
       a =  2.000      CL =  0.5830
      Cm = -0.0871     CD =  0.01550   =>   CDf =  0.00822    CDp =  0.00729

 Side 1  free  transition at x/c =  0.5622   64
 Side 2  free  transition at x/c =  0.2456   42

   5   rms: 0.5345E-04   max: -.4573E-03   D at   81  2
       a =  2.000      CL =  0.5830
      Cm = -0.0871     CD =  0.01550   =>   CDf =  0.00822    CDp =  0.00729

 Point added to stored polar  1
 Point written to save file  000182M0.04.log                                 
 Dump file unspecified or not available
 Calculating wake trajectory ...
 Calculating source influence matrix ...

 Solving BL system ...

 Side 1  free  transition at x/c =  0.5622   64
 Side 2  free  transition at x/c =  0.2456   42

   1   rms: 0.1363E+00   max: -.6428E+00   T at   42  2   RLX: 0.778
       a =  3.000      CL =  0.6667
      Cm = -0.0856     CD =  0.01553   =>   CDf =  0.00809    CDp =  0.00743

 MRCHDU: Convergence failed at  43  side 2    Res =  0.7350E+01
 MRCHDU: Convergence failed at  44  side 2    Res =  0.2558E+01
 MRCHDU: Convergence failed at  45  side 2    Res =  0.4160E+01
 MRCHDU: Convergence failed at  46  side 2    Res =  0.9743E+01
 MRCHDU: Convergence failed at  47  side 2    Res =  0.2784E+02
 MRCHDU: Convergence failed at  48  side 2    Res =  0.9943E+02
 MRCHDU: Convergence failed at  49  side 2    Res =  0.2468E+04
 MRCHDU: Convergence failed at  50  side 2    Res =  0.7603E+04
 MRCHDU: Convergence failed at  51  side 2    Res =  0.1342E+03
 MRCHDU: Convergence failed at  52  side 2    Res =  0.8477E+02
 MRCHDU: Convergence failed at  53  side 2    Res =  0.6063E+02
 MRCHDU: Convergence failed at  54  side 2    Res =  0.4713E+02
 MRCHDU: Convergence failed at  55  side 2    Res =  0.3848E+02
 MRCHDU: Convergence failed at  56  side 2    Res =  0.3202E+02
 MRCHDU: Convergence failed at  57  side 2    Res =  0.2662E+02
 MRCHDU: Convergence failed at  58  side 2    Res =  0.2166E+02
 MRCHDU: Convergence failed at  59  side 2    Res =  0.1597E+02
 MRCHDU: Convergence failed at  60  side 2    Res =  0.1224E+02
 MRCHDU: Convergence failed at  61  side 2    Res =  0.9159E+01
 MRCHDU: Convergence failed at  62  side 2    Res =  0.6709E+01
 MRCHDU: Convergence failed at  63  side 2    Res =  0.4420E+01
 MRCHDU: Convergence failed at  64  side 2    Res =  0.3243E+01
 MRCHDU: Convergence failed at  65  side 2    Res =  0.2599E+01
 MRCHDU: Convergence failed at  66  side 2    Res =  0.5016E+01
 MRCHDU: Convergence failed at  67  side 2    Res =  0.4975E+01
 MRCHDU: Convergence failed at  68  side 2    Res =  0.5268E+01
 MRCHDU: Convergence failed at  69  side 2    Res =  0.5767E+01
 MRCHDU: Convergence failed at  70  side 2    Res =  0.6457E+01
 MRCHDU: Convergence failed at  71  side 2    Res =  0.7648E+01
 MRCHDU: Convergence failed at  72  side 2    Res =  0.1014E+02
 MRCHDU: Convergence failed at  73  side 2    Res =  0.1552E+02
 MRCHDU: Convergence failed at  74  side 2    Res =  0.3757E+02
 MRCHDU: Convergence failed at  75  side 2    Res =  0.6176E+02
 MRCHDU: Convergence failed at  76  side 2    Res =  0.1262E+02
 MRCHDU: Convergence failed at  77  side 2    Res =  0.3539E+02
 Side 1  free  transition at x/c =  0.5511   64
 Side 2  free  transition at x/c =  0.2653   42

   2   rms: 0.2921E+00   max: 0.8619E+00   D at   51  2
       a =  3.000      CL =  0.8575
      Cm = -0.1153     CD =  0.01352   =>   CDf =  0.00503    CDp =  0.00850

 MRCHDU: Convergence failed at  52  side 2    Res =  0.1080E+00
 MRCHDU: Convergence failed at  53  side 2    Res =  0.1170E+00
 MRCHDU: Convergence failed at  54  side 2    Res =  0.1369E+00
 MRCHDU: Convergence failed at  55  side 2    Res =  0.1617E+00
 MRCHDU: Convergence failed at  56  side 2    Res =  0.1890E+00
 MRCHDU: Convergence failed at  57  side 2    Res =  0.2179E+00
 MRCHDU: Convergence failed at  58  side 2    Res =  0.2477E+00
 MRCHDU: Convergence failed at  59  side 2    Res =  0.2773E+00
 MRCHDU: Convergence failed at  60  side 2    Res =  0.3054E+00
 MRCHDU: Convergence failed at  61  side 2    Res =  0.3357E+00
 MRCHDU: Convergence failed at  62  side 2    Res =  0.3557E+00
 MRCHDU: Convergence failed at  63  side 2    Res =  0.3718E+00
 MRCHDU: Convergence failed at  64  side 2    Res =  0.3832E+00
 MRCHDU: Convergence failed at  65  side 2    Res =  0.3885E+00
 MRCHDU: Convergence failed at  66  side 2    Res =  0.3865E+00
 MRCHDU: Convergence failed at  67  side 2    Res =  0.3758E+00
 MRCHDU: Convergence failed at  68  side 2    Res =  0.3554E+00
 MRCHDU: Convergence failed at  69  side 2    Res =  0.3234E+00
 MRCHDU: Convergence failed at  70  side 2    Res =  0.2769E+00
 MRCHDU: Convergence failed at  71  side 2    Res =  0.2107E+00
 MRCHDU: Convergence failed at  72  side 2    Res =  0.1068E+00
 Side 1  free  transition at x/c =  0.5417   66
 Side 2  free  transition at x/c =  0.2536   40

   3   rms: 0.4536E+00   max: -.1916E+01   T at   40  2   RLX: 0.261
       a =  3.000      CL =  0.9183
      Cm = -0.1578     CD =  0.02503   =>   CDf =  0.00545    CDp =  0.01958

 Side 1  free  transition at x/c =  0.5421   65
 Side 2  free  transition at x/c =  0.2635   41

   4   rms: 0.1728E+01   max: 0.1819E+02   T at   41  2   RLX: 0.059
       a =  3.000      CL =  0.9077
      Cm = -0.1530     CD =  0.03321   =>   CDf =  0.00595    CDp =  0.02726

 Side 1  free  transition at x/c =  0.5422   65
 Side 2  free  transition at x/c =  0.2460   40

   5   rms: 0.2668E+01   max: -.2588E+02   T at   40  2   RLX: 0.019
       a =  3.000      CL =  0.9078
      Cm = -0.1548     CD =  0.03506   =>   CDf =  0.00561    CDp =  0.02945

 Side 1  free  transition at x/c =  0.5424   65
 Side 2  free  transition at x/c =  0.2573   41

   6   rms: 0.5798E+00   max: -.2936E+01   D at   61  2   RLX: 0.170
       a =  3.000      CL =  0.8630
      Cm = -0.1458     CD =  0.02596   =>   CDf =  0.00589    CDp =  0.02007

 Side 1  free  transition at x/c =  0.5431   65
 Side 2  free  transition at x/c =  0.2628   41

   7   rms: 0.7288E+00   max: -.4324E+01   D at   61  2   RLX: 0.116
       a =  3.000      CL =  0.8457
      Cm = -0.1417     CD =  0.02334   =>   CDf =  0.00615    CDp =  0.01719

 Side 1  free  transition at x/c =  0.5435   65
 Side 2  free  transition at x/c =  0.2690   42

   8   rms: 0.5576E+00   max: -.3168E+01   D at   61  2   RLX: 0.158
       a =  3.000      CL =  0.8256
      Cm = -0.1351     CD =  0.02180   =>   CDf =  0.00633    CDp =  0.01547

 Side 1  free  transition at x/c =  0.5439   65
 Side 2  free  transition at x/c =  0.2729   42

   9   rms: 0.6252E+00   max: -.3259E+01   D at   61  2   RLX: 0.153
       a =  3.000      CL =  0.8104
      Cm = -0.1294     CD =  0.02005   =>   CDf =  0.00659    CDp =  0.01346

 Side 1  free  transition at x/c =  0.5441   65
 Side 2  free  transition at x/c =  0.2838   42

  10   rms: 0.1481E+01   max: -.1229E+02   T at   42  2   RLX: 0.041
       a =  3.000      CL =  0.8132
      Cm = -0.1292     CD =  0.02052   =>   CDf =  0.00693    CDp =  0.01359

 Side 1  free  transition at x/c =  0.5440   65
 Side 2  free  transition at x/c =  0.3043   43

  11   rms: 0.3580E+00   max: -.2040E+01   D at   58  2   RLX: 0.245
       a =  3.000      CL =  0.7849
      Cm = -0.1197     CD =  0.01552   =>   CDf =  0.00727    CDp =  0.00824

 Side 1  free  transition at x/c =  0.5444   65
 Side 2  free  transition at x/c =  0.2985   43

  12   rms: 0.2477E+00   max: -.1461E+01   D at   59  2   RLX: 0.342
       a =  3.000      CL =  0.7532
      Cm = -0.1085     CD =  0.01503   =>   CDf =  0.00747    CDp =  0.00756

 Side 1  free  transition at x/c =  0.5450   65
 Side 2  free  transition at x/c =  0.2891   42

  13   rms: 0.1357E+00   max: -.9936E+00   D at   60  2   RLX: 0.503
       a =  3.000      CL =  0.6918
      Cm = -0.0908     CD =  0.01538   =>   CDf =  0.00783    CDp =  0.00755

 Side 1  free  transition at x/c =  0.5460   64
 Side 2  free  transition at x/c =  0.2728   43

  14   rms: 0.1407E+00   max: 0.7774E+00   T at   43  2   RLX: 0.666
       a =  3.000      CL =  0.5650
      Cm = -0.0601     CD =  0.01618   =>   CDf =  0.00794    CDp =  0.00824

 MRCHDU: Convergence failed at  43  side 2    Res =  0.3109E+01
 MRCHDU: Convergence failed at  44  side 2    Res =  0.2324E+01
 MRCHDU: Convergence failed at  45  side 2    Res =  0.3478E+01
 MRCHDU: Convergence failed at  46  side 2    Res =  0.5494E+01
 MRCHDU: Convergence failed at  47  side 2    Res =  0.8279E+01
 MRCHDU: Convergence failed at  48  side 2    Res =  0.9304E+01
 MRCHDU: Convergence failed at  49  side 2    Res =  0.1126E+02
 MRCHDU: Convergence failed at  50  side 2    Res =  0.1073E+02
 MRCHDU: Convergence failed at  51  side 2    Res =  0.1038E+02
 MRCHDU: Convergence failed at  52  side 2    Res =  0.9599E+01
 MRCHDU: Convergence failed at  53  side 2    Res =  0.9567E+01
 MRCHDU: Convergence failed at  54  side 2    Res =  0.9511E+01
 MRCHDU: Convergence failed at  55  side 2    Res =  0.9491E+01
 MRCHDU: Convergence failed at  56  side 2    Res =  0.9041E+01
 MRCHDU: Convergence failed at  57  side 2    Res =  0.8806E+01
 MRCHDU: Convergence failed at  58  side 2    Res =  0.8615E+01
 MRCHDU: Convergence failed at  59  side 2    Res =  0.8665E+01
 MRCHDU: Convergence failed at  60  side 2    Res =  0.1003E+02
 MRCHDU: Convergence failed at  61  side 2    Res =  0.3627E+02
 MRCHDU: Convergence failed at  62  side 2    Res =  0.3305E+01
 MRCHDU: Convergence failed at  63  side 2    Res =  0.2620E+01
 MRCHDU: Convergence failed at  64  side 2    Res =  0.2004E+01
 MRCHDU: Convergence failed at  65  side 2    Res =  0.3332E+01
 MRCHDU: Convergence failed at  66  side 2    Res =  0.3389E+01
 MRCHDU: Convergence failed at  67  side 2    Res =  0.3477E+01
 MRCHDU: Convergence failed at  68  side 2    Res =  0.3670E+01
 MRCHDU: Convergence failed at  69  side 2    Res =  0.4913E+01
 MRCHDU: Convergence failed at  70  side 2    Res =  0.5756E+01
 MRCHDU: Convergence failed at  71  side 2    Res =  0.6788E+01
 MRCHDU: Convergence failed at  72  side 2    Res =  0.7979E+01
 MRCHDU: Convergence failed at  73  side 2    Res =  0.9412E+01
 MRCHDU: Convergence failed at  74  side 2    Res =  0.1155E+02
 MRCHDU: Convergence failed at  75  side 2    Res =  0.1562E+02
 MRCHDU: Convergence failed at  76  side 2    Res =  0.2036E+02
 MRCHDU: Convergence failed at  77  side 2    Res =  0.3109E+02
 Side 1  free  transition at x/c =  0.5482   64
 Side 2  free  transition at x/c =  0.2624   42

  15   rms: 0.3232E+00   max: 0.5312E+00   D at   79  2   RLX: 0.891
       a =  3.000      CL =  0.8276
      Cm = -0.1083     CD =  0.01305   =>   CDf =  0.00484    CDp =  0.00821

 Side 1  free  transition at x/c =  0.5425   66
 Side 2  free  transition at x/c =  0.2641   40

  16   rms: 0.2055E+00   max: -.1109E+01   D at   48  2   RLX: 0.451
       a =  3.000      CL =  0.7835
      Cm = -0.1025     CD =  0.01728   =>   CDf =  0.00793    CDp =  0.00935

 Side 1  free  transition at x/c =  0.5440   65
 Side 2  free  transition at x/c =  0.2689   42

  17   rms: 0.2573E+00   max: -.1951E+01   D at   49  2   RLX: 0.256
       a =  3.000      CL =  0.7684
      Cm = -0.1003     CD =  0.01607   =>   CDf =  0.00789    CDp =  0.00817

 Side 1  free  transition at x/c =  0.5444   65
 Side 2  free  transition at x/c =  0.2721   42

  18   rms: 0.2293E+00   max: -.2188E+01   D at   49  2   RLX: 0.229
       a =  3.000      CL =  0.7486
      Cm = -0.0968     CD =  0.01578   =>   CDf =  0.00798    CDp =  0.00781

 MRCHDU: Convergence failed at  47  side 2    Res =  0.1230E+01
 Side 1  free  transition at x/c =  0.5448   65
 Side 2  free  transition at x/c =  0.2730   42

  19   rms: 0.1834E+00   max: -.1380E+01   D at   50  2   RLX: 0.362
       a =  3.000      CL =  0.6770
      Cm = -0.0826     CD =  0.01583   =>   CDf =  0.00835    CDp =  0.00747

 Side 1  free  transition at x/c =  0.5460   64
 Side 2  free  transition at x/c =  0.2690   43

  20   rms: 0.1057E+00   max: -.1038E+01   D at   52  2   RLX: 0.482
       a =  3.000      CL =  0.6566
      Cm = -0.0784     CD =  0.01591   =>   CDf =  0.00828    CDp =  0.00763

 Side 1  free  transition at x/c =  0.5465   64
 Side 2  free  transition at x/c =  0.2659   42

  21   rms: 0.6939E-01   max: -.8380E+00   D at   52  2   RLX: 0.597
       a =  3.000      CL =  0.6648
      Cm = -0.0801     CD =  0.01563   =>   CDf =  0.00820    CDp =  0.00743

 Side 1  free  transition at x/c =  0.5464   64
 Side 2  free  transition at x/c =  0.2656   42

  22   rms: 0.4017E-01   max: -.5145E+00   D at   52  2   RLX: 0.972
       a =  3.000      CL =  0.6847
      Cm = -0.0843     CD =  0.01557   =>   CDf =  0.00816    CDp =  0.00742

 Side 1  free  transition at x/c =  0.5461   64
 Side 2  free  transition at x/c =  0.2662   42

  23   rms: 0.7123E-02   max: -.9750E-01   D at   52  2
       a =  3.000      CL =  0.6886
      Cm = -0.0851     CD =  0.01560   =>   CDf =  0.00815    CDp =  0.00744

 Side 1  free  transition at x/c =  0.5460   64
 Side 2  free  transition at x/c =  0.2663   42

  24   rms: 0.1673E-03   max: -.2486E-02   D at   52  2
       a =  3.000      CL =  0.6886
      Cm = -0.0851     CD =  0.01560   =>   CDf =  0.00815    CDp =  0.00745

 Side 1  free  transition at x/c =  0.5460   64
 Side 2  free  transition at x/c =  0.2663   42

  25   rms: 0.1034E-05   max: 0.9568E-05   D at    4  2
       a =  3.000      CL =  0.6886
      Cm = -0.0851     CD =  0.01560   =>   CDf =  0.00815    CDp =  0.00745

 Point added to stored polar  1
 Point written to save file  000182M0.04.log                                 
 Dump file unspecified or not available
 Calculating wake trajectory ...
 Calculating source influence matrix ...

 Solving BL system ...

 Side 1  free  transition at x/c =  0.5460   64
 Side 2  free  transition at x/c =  0.2663   42

   1   rms: 0.1339E+00   max: -.6741E+00   T at   42  2   RLX: 0.742
       a =  4.000      CL =  0.7639
      Cm = -0.0830     CD =  0.01576   =>   CDf =  0.00802    CDp =  0.00775

 MRCHDU: Convergence failed at  43  side 2    Res =  0.8347E+01
 MRCHDU: Convergence failed at  44  side 2    Res =  0.2234E+01
 MRCHDU: Convergence failed at  45  side 2    Res =  0.2871E+01
 MRCHDU: Convergence failed at  46  side 2    Res =  0.4610E+01
 MRCHDU: Convergence failed at  47  side 2    Res =  0.6489E+01
 MRCHDU: Convergence failed at  48  side 2    Res =  0.8036E+01
 MRCHDU: Convergence failed at  49  side 2    Res =  0.8989E+01
 MRCHDU: Convergence failed at  50  side 2    Res =  0.9252E+01
 MRCHDU: Convergence failed at  51  side 2    Res =  0.9046E+01
 MRCHDU: Convergence failed at  52  side 2    Res =  0.8496E+01
 MRCHDU: Convergence failed at  53  side 2    Res =  0.7785E+01
 MRCHDU: Convergence failed at  54  side 2    Res =  0.6979E+01
 MRCHDU: Convergence failed at  55  side 2    Res =  0.6123E+01
 MRCHDU: Convergence failed at  56  side 2    Res =  0.5227E+01
 MRCHDU: Convergence failed at  57  side 2    Res =  0.4241E+01
 MRCHDU: Convergence failed at  58  side 2    Res =  0.3304E+01
 MRCHDU: Convergence failed at  59  side 2    Res =  0.2652E+01
 MRCHDU: Convergence failed at  60  side 2    Res =  0.2162E+01
 MRCHDU: Convergence failed at  61  side 2    Res =  0.3173E+01
 MRCHDU: Convergence failed at  62  side 2    Res =  0.2941E+01
 MRCHDU: Convergence failed at  63  side 2    Res =  0.3012E+01
 MRCHDU: Convergence failed at  64  side 2    Res =  0.3108E+01
 MRCHDU: Convergence failed at  65  side 2    Res =  0.4833E+01
 MRCHDU: Convergence failed at  66  side 2    Res =  0.6625E+01
 MRCHDU: Convergence failed at  67  side 2    Res =  0.1068E+02
 MRCHDU: Convergence failed at  68  side 2    Res =  0.2029E+02
 MRCHDU: Convergence failed at  69  side 2    Res =  0.4694E+02
 MRCHDU: Convergence failed at  70  side 2    Res =  0.5948E+03
 MRCHDU: Convergence failed at  71  side 2    Res =  0.6146E+03
 MRCHDU: Convergence failed at  72  side 2    Res =  0.9184E+02
 MRCHDU: Convergence failed at  73  side 2    Res =  0.6740E+02
 MRCHDU: Convergence failed at  74  side 2    Res =  0.1839E+03
 MRCHDU: Convergence failed at  75  side 2    Res =  0.1948E+02
 MRCHDU: Convergence failed at  76  side 2    Res =  0.2739E+02
 Side 1  free  transition at x/c =  0.5330   65
 Side 2  free  transition at x/c =  0.2873   42

   2   rms: 0.2413E+00   max: -.7430E+00   D at   66  2   RLX: 0.673
       a =  4.000      CL =  0.8359
      Cm = -0.0858     CD =  0.01351   =>   CDf =  0.00512    CDp =  0.00840

 Side 1  free  transition at x/c =  0.5302   65
 Side 2  free  transition at x/c =  0.2853   41

   3   rms: 0.1570E+00   max: -.1050E+01   D at   49  2   RLX: 0.476
       a =  4.000      CL =  0.8204
      Cm = -0.0858     CD =  0.01697   =>   CDf =  0.00816    CDp =  0.00880

 Side 1  free  transition at x/c =  0.5304   65
 Side 2  free  transition at x/c =  0.2907   42

   4   rms: 0.2188E+00   max: -.1911E+01   D at   49  2   RLX: 0.262
       a =  4.000      CL =  0.8103
      Cm = -0.0846     CD =  0.01611   =>   CDf =  0.00800    CDp =  0.00811

 Side 1  free  transition at x/c =  0.5304   65
 Side 2  free  transition at x/c =  0.2930   42

   5   rms: 0.1752E+00   max: -.1719E+01   D at   49  2   RLX: 0.291
       a =  4.000      CL =  0.7791
      Cm = -0.0785     CD =  0.01597   =>   CDf =  0.00806    CDp =  0.00790

 MRCHDU: Convergence failed at  47  side 2    Res =  0.1310E+01
 Side 1  free  transition at x/c =  0.5309   65
 Side 2  free  transition at x/c =  0.2926   42

   6   rms: 0.1350E+00   max: -.1167E+01   D at   50  2   RLX: 0.428
       a =  4.000      CL =  0.7218
      Cm = -0.0671     CD =  0.01601   =>   CDf =  0.00839    CDp =  0.00762

 Side 1  free  transition at x/c =  0.5316   64
 Side 2  free  transition at x/c =  0.2891   42

   7   rms: 0.7797E-01   max: -.9237E+00   D at   51  2   RLX: 0.541
       a =  4.000      CL =  0.7167
      Cm = -0.0662     CD =  0.01565   =>   CDf =  0.00824    CDp =  0.00741

 Side 1  free  transition at x/c =  0.5316   64
 Side 2  free  transition at x/c =  0.2869   42

   8   rms: 0.5407E-01   max: -.6084E+00   D at   51  2   RLX: 0.822
       a =  4.000      CL =  0.7492
      Cm = -0.0734     CD =  0.01568   =>   CDf =  0.00803    CDp =  0.00765

 Side 1  free  transition at x/c =  0.5310   65
 Side 2  free  transition at x/c =  0.2876   41

   9   rms: 0.3217E-01   max: -.2062E+00   D at   50  2
       a =  4.000      CL =  0.7896
      Cm = -0.0821     CD =  0.01578   =>   CDf =  0.00814    CDp =  0.00765

 Side 1  free  transition at x/c =  0.5301   65
 Side 2  free  transition at x/c =  0.2899   41

  10   rms: 0.5059E-02   max: -.4237E-01   D at   41  2
       a =  4.000      CL =  0.7945
      Cm = -0.0832     CD =  0.01581   =>   CDf =  0.00813    CDp =  0.00768

 Side 1  free  transition at x/c =  0.5300   65
 Side 2  free  transition at x/c =  0.2902   42

  11   rms: 0.3680E-02   max: -.3733E-01   D at   41  2
       a =  4.000      CL =  0.7946
      Cm = -0.0832     CD =  0.01579   =>   CDf =  0.00812    CDp =  0.00767

 Side 1  free  transition at x/c =  0.5300   65
 Side 2  free  transition at x/c =  0.2905   42

  12   rms: 0.1220E-03   max: 0.9421E-03   T at   42  2
       a =  4.000      CL =  0.7946
      Cm = -0.0832     CD =  0.01579   =>   CDf =  0.00811    CDp =  0.00768

 Side 1  free  transition at x/c =  0.5300   65
 Side 2  free  transition at x/c =  0.2904   42

  13   rms: 0.9845E-06   max: 0.6613E-05   T at   65  1
       a =  4.000      CL =  0.7946
      Cm = -0.0832     CD =  0.01579   =>   CDf =  0.00811    CDp =  0.00768

 Point added to stored polar  1
 Point written to save file  000182M0.04.log                                 
 Dump file unspecified or not available
 Calculating wake trajectory ...
 Calculating source influence matrix ...

 Solving BL system ...

 Side 1  free  transition at x/c =  0.5300   65
 Side 2  free  transition at x/c =  0.2904   42

   1   rms: 0.1693E+00   max: -.8344E+00   T at   42  2   RLX: 0.599
       a =  5.000      CL =  0.8506
      Cm = -0.0811     CD =  0.01519   =>   CDf =  0.00797    CDp =  0.00722

 Side 1  free  transition at x/c =  0.5186   66
 Side 2  free  transition at x/c =  0.3181   42

   2   rms: 0.5601E-01   max: 0.1564E+00   D at   42  2
       a =  5.000      CL =  0.8975
      Cm = -0.0808     CD =  0.01588   =>   CDf =  0.00793    CDp =  0.00795

 Side 1  free  transition at x/c =  0.5138   66
 Side 2  free  transition at x/c =  0.3213   42

   3   rms: 0.3578E-02   max: -.3709E-01   D at   66  1
       a =  5.000      CL =  0.8983
      Cm = -0.0810     CD =  0.01594   =>   CDf =  0.00794    CDp =  0.00800

 Side 1  free  transition at x/c =  0.5138   66
 Side 2  free  transition at x/c =  0.3210   42

   4   rms: 0.7974E-04   max: 0.6215E-03   D at   66  1
       a =  5.000      CL =  0.8983
      Cm = -0.0810     CD =  0.01594   =>   CDf =  0.00794    CDp =  0.00799

 Point added to stored polar  1
 Point written to save file  000182M0.04.log                                 
 Dump file unspecified or not available
 Calculating wake trajectory ...
 Calculating source influence matrix ...

 Solving BL system ...

 Side 1  free  transition at x/c =  0.5138   66
 Side 2  free  transition at x/c =  0.3210   42

   1   rms: 0.1531E+00   max: -.8594E+00   T at   42  2   RLX: 0.582
       a =  6.000      CL =  0.9697
      Cm = -0.0820     CD =  0.01650   =>   CDf =  0.00779    CDp =  0.00871

 Side 1  free  transition at x/c =  0.5053   66
 Side 2  free  transition at x/c =  0.3375   42

   2   rms: 0.1127E+00   max: -.7054E+00   T at   42  2   RLX: 0.709
       a =  6.000      CL =  0.9857
      Cm = -0.0788     CD =  0.01600   =>   CDf =  0.00772    CDp =  0.00828

 Side 1  free  transition at x/c =  0.4987   67
 Side 2  free  transition at x/c =  0.3578   42

   3   rms: 0.2068E-01   max: -.1492E+00   D at   67  1
       a =  6.000      CL =  0.9946
      Cm = -0.0775     CD =  0.01624   =>   CDf =  0.00773    CDp =  0.00851

 Side 1  free  transition at x/c =  0.4973   67
 Side 2  free  transition at x/c =  0.3588   42

   4   rms: 0.1031E-02   max: 0.8773E-02   T at   42  2
       a =  6.000      CL =  0.9942
      Cm = -0.0774     CD =  0.01625   =>   CDf =  0.00771    CDp =  0.00855

 Side 1  free  transition at x/c =  0.4974   67
 Side 2  free  transition at x/c =  0.3585   42

   5   rms: 0.1628E-04   max: -.8446E-04   D at   43  2
       a =  6.000      CL =  0.9942
      Cm = -0.0774     CD =  0.01625   =>   CDf =  0.00771    CDp =  0.00854

 Point added to stored polar  1
 Point written to save file  000182M0.04.log                                 
 Dump file unspecified or not available
 Calculating wake trajectory ...
 Calculating source influence matrix ...

 Solving BL system ...

 Side 1  free  transition at x/c =  0.4974   67
 Side 2  free  transition at x/c =  0.3585   42

   1   rms: 0.1591E+00   max: -.8973E+00   T at   42  2   RLX: 0.557
       a =  7.000      CL =  1.0520
      Cm = -0.0763     CD =  0.01616   =>   CDf =  0.00755    CDp =  0.00861

 Side 1  free  transition at x/c =  0.4905   67
 Side 2  free  transition at x/c =  0.3827   42

   2   rms: 0.1011E+00   max: -.7551E+00   T at   42  2   RLX: 0.662
       a =  7.000      CL =  1.0716
      Cm = -0.0741     CD =  0.01650   =>   CDf =  0.00770    CDp =  0.00880

 Side 1  free  transition at x/c =  0.4834   67
 Side 2  free  transition at x/c =  0.4001   42

   3   rms: 0.3350E-01   max: -.2695E+00   D at   42  2
       a =  7.000      CL =  1.0880
      Cm = -0.0736     CD =  0.01676   =>   CDf =  0.00755    CDp =  0.00921

 Side 1  free  transition at x/c =  0.4806   67
 Side 2  free  transition at x/c =  0.4186   43

   4   rms: 0.1989E-01   max: 0.3652E+00   C at   43  2
       a =  7.000      CL =  1.0868
      Cm = -0.0734     CD =  0.01664   =>   CDf =  0.00733    CDp =  0.00931

 Side 1  free  transition at x/c =  0.4808   67
 Side 2  free  transition at x/c =  0.4161   43

   5   rms: 0.2464E-02   max: 0.3754E-01   C at   43  2
       a =  7.000      CL =  1.0868
      Cm = -0.0734     CD =  0.01663   =>   CDf =  0.00736    CDp =  0.00928

 Side 1  free  transition at x/c =  0.4808   67
 Side 2  free  transition at x/c =  0.4147   43

   6   rms: 0.5082E-04   max: -.7002E-03   D at   45  2
       a =  7.000      CL =  1.0868
      Cm = -0.0734     CD =  0.01663   =>   CDf =  0.00736    CDp =  0.00927

 Point added to stored polar  1
 Point written to save file  000182M0.04.log                                 
 Dump file unspecified or not available
 Calculating wake trajectory ...
 Calculating source influence matrix ...

 Solving BL system ...

 Side 1  free  transition at x/c =  0.4808   67
 Side 2  free  transition at x/c =  0.4147   43

   1   rms: 0.1485E+00   max: -.8419E+00   C at   43  2   RLX: 0.594
       a =  8.000      CL =  1.1443
      Cm = -0.0715     CD =  0.01676   =>   CDf =  0.00719    CDp =  0.00956

 Side 1  free  transition at x/c =  0.4720   67
 Side 2  free  transition at x/c =  0.4621   44

   2   rms: 0.6564E-01   max: -.6020E+00   T at   44  2   RLX: 0.831
       a =  8.000      CL =  1.1649
      Cm = -0.0684     CD =  0.01720   =>   CDf =  0.00734    CDp =  0.00986

 MRCHDU: Convergence failed at  70  side 2    Res =  0.5232E+01
 Side 1  free  transition at x/c =  0.4649   67
 Side 2  free  transition at x/c =  0.9849   69

   3   rms: 0.2744E+00   max: 0.4168E+01   C at   69  2   RLX: 0.360
       a =  8.000      CL =  1.2200
      Cm = -0.0780     CD =  0.01619   =>   CDf =  0.00587    CDp =  0.01032

 Side 1  free  transition at x/c =  0.4631   68
 Side 2 forced transition at x/c =  1.0001   69

   4   rms: 0.9829E-01   max: 0.8518E+00   D at   68  2
       a =  8.000      CL =  1.3299
      Cm = -0.1006     CD =  0.01673   =>   CDf =  0.00600    CDp =  0.01072

 Side 1  free  transition at x/c =  0.4594   68
 Side 2 forced transition at x/c =  1.0001   69

   5   rms: 0.1322E-01   max: 0.1382E+00   D at   66  2
       a =  8.000      CL =  1.3356
      Cm = -0.1017     CD =  0.01680   =>   CDf =  0.00605    CDp =  0.01075

 Side 1  free  transition at x/c =  0.4596   68
 Side 2 forced transition at x/c =  1.0001   69

   6   rms: 0.6019E-03   max: 0.9082E-02   D at   65  2
       a =  8.000      CL =  1.3358
      Cm = -0.1017     CD =  0.01680   =>   CDf =  0.00602    CDp =  0.01078

 Side 1  free  transition at x/c =  0.4596   68
 Side 2 forced transition at x/c =  1.0001   69

   7   rms: 0.3708E-05   max: 0.5893E-04   D at   65  2
       a =  8.000      CL =  1.3358
      Cm = -0.1017     CD =  0.01680   =>   CDf =  0.00602    CDp =  0.01079

 Point added to stored polar  1
 Point written to save file  000182M0.04.log                                 
 Dump file unspecified or not available
 Calculating wake trajectory ...
 Calculating source influence matrix ...

 Solving BL system ...

 Side 1  free  transition at x/c =  0.4596   68
 Side 2 forced transition at x/c =  1.0001   69

   1   rms: 0.1362E+00   max: 0.5052E+00   T at   68  1
       a =  9.000      CL =  1.4218
      Cm = -0.0963     CD =  0.01756   =>   CDf =  0.00576    CDp =  0.01179

 Side 1  free  transition at x/c =  0.4292   68
 Side 2 forced transition at x/c =  1.0001   67

   2   rms: 0.7403E-01   max: -.6183E+00   D at   69  1   RLX: 0.809
       a =  9.000      CL =  1.4170
      Cm = -0.0953     CD =  0.01794   =>   CDf =  0.00603    CDp =  0.01191

 Side 1  free  transition at x/c =  0.4350   68
 Side 2 forced transition at x/c =  1.0001   67

   3   rms: 0.1640E-01   max: -.1561E+00   D at   69  1
       a =  9.000      CL =  1.4019
      Cm = -0.0927     CD =  0.01758   =>   CDf =  0.00616    CDp =  0.01143

 Side 1  free  transition at x/c =  0.4359   68
 Side 2 forced transition at x/c =  1.0001   67

   4   rms: 0.7625E-03   max: 0.8154E-02   D at   69  1
       a =  9.000      CL =  1.4021
      Cm = -0.0927     CD =  0.01759   =>   CDf =  0.00617    CDp =  0.01142

 Side 1  free  transition at x/c =  0.4357   68
 Side 2 forced transition at x/c =  1.0001   67

   5   rms: 0.2494E-04   max: 0.1024E-03   D at   73  2
       a =  9.000      CL =  1.4021
      Cm = -0.0927     CD =  0.01759   =>   CDf =  0.00616    CDp =  0.01143

 Point added to stored polar  1
 Point written to save file  000182M0.04.log                                 
 Dump file unspecified or not available
 Calculating wake trajectory ...
 Calculating source influence matrix ...

 Solving BL system ...

 Side 1  free  transition at x/c =  0.4357   68
 Side 2 forced transition at x/c =  1.0001   67

   1   rms: 0.1146E+00   max: -.8354E+00   C at   68  1   RLX: 0.599
       a = 10.000      CL =  1.3917
      Cm = -0.0784     CD =  0.01824   =>   CDf =  0.00618    CDp =  0.01206

 Side 1  free  transition at x/c =  0.4196   68
 Side 2 forced transition at x/c =  1.0001   67

   2   rms: 0.6098E-01   max: -.2937E+00   D at   68  1
       a = 10.000      CL =  1.4433
      Cm = -0.0794     CD =  0.01863   =>   CDf =  0.00602    CDp =  0.01261

 Side 1  free  transition at x/c =  0.4127   68
 Side 2 forced transition at x/c =  1.0001   66

   3   rms: 0.2295E-01   max: -.2105E+00   D at    2  1
       a = 10.000      CL =  1.4195
      Cm = -0.0751     CD =  0.01861   =>   CDf =  0.00625    CDp =  0.01235

 Side 1  free  transition at x/c =  0.4123   67
 Side 2 forced transition at x/c =  1.0001   67

   4   rms: 0.1679E-02   max: -.1388E-01   D at    3  1
       a = 10.000      CL =  1.4207
      Cm = -0.0754     CD =  0.01861   =>   CDf =  0.00606    CDp =  0.01255

 Side 1  free  transition at x/c =  0.4122   67
 Side 2 forced transition at x/c =  1.0001   67

   5   rms: 0.2220E-03   max: 0.2674E-02   D at    4  2
       a = 10.000      CL =  1.4207
      Cm = -0.0754     CD =  0.01861   =>   CDf =  0.00606    CDp =  0.01256

 Side 1  free  transition at x/c =  0.4122   67
 Side 2 forced transition at x/c =  1.0001   67

   6   rms: 0.9390E-06   max: -.7544E-05   D at    2  2
       a = 10.000      CL =  1.4207
      Cm = -0.0754     CD =  0.01861   =>   CDf =  0.00606    CDp =  0.01256

 Point added to stored polar  1
 Point written to save file  000182M0.04.log                                 
 Dump file unspecified or not available
 Calculating wake trajectory ...
 Calculating source influence matrix ...

 Solving BL system ...

 Side 1  free  transition at x/c =  0.4122   67
 Side 2 forced transition at x/c =  1.0001   67

   1   rms: 0.1032E+00   max: 0.3945E+00   T at   67  1
       a = 11.000      CL =  1.4213
      Cm = -0.0558     CD =  0.02000   =>   CDf =  0.00592    CDp =  0.01408

 Side 1  free  transition at x/c =  0.3883   67
 Side 2 forced transition at x/c =  1.0001   66

   2   rms: 0.3707E-01   max: -.2996E+00   D at   67  1
       a = 11.000      CL =  1.4380
      Cm = -0.0599     CD =  0.02020   =>   CDf =  0.00613    CDp =  0.01407

 Side 1  free  transition at x/c =  0.3904   67
 Side 2 forced transition at x/c =  1.0001   66

   3   rms: 0.5546E-02   max: 0.3367E-01   D at   65  2
       a = 11.000      CL =  1.4429
      Cm = -0.0608     CD =  0.02031   =>   CDf =  0.00595    CDp =  0.01436

 Side 1  free  transition at x/c =  0.3891   67
 Side 2 forced transition at x/c =  1.0001   66

   4   rms: 0.2360E-03   max: -.1638E-02   D at   67  1
       a = 11.000      CL =  1.4431
      Cm = -0.0608     CD =  0.02032   =>   CDf =  0.00598    CDp =  0.01434

 Side 1  free  transition at x/c =  0.3890   67
 Side 2 forced transition at x/c =  1.0001   66

   5   rms: 0.8584E-05   max: -.3528E-04   D at   88  1
       a = 11.000      CL =  1.4431
      Cm = -0.0608     CD =  0.02032   =>   CDf =  0.00598    CDp =  0.01434

 Point added to stored polar  1
 Point written to save file  000182M0.04.log                                 
 Dump file unspecified or not available
 Calculating wake trajectory ...
 Calculating source influence matrix ...

 Solving BL system ...

 Side 1  free  transition at x/c =  0.3890   67
 Side 2 forced transition at x/c =  1.0001   66

   1   rms: 0.1116E+00   max: 0.4044E+00   T at   67  1
       a = 12.000      CL =  1.4695
      Cm = -0.0481     CD =  0.02248   =>   CDf =  0.00584    CDp =  0.01664

 Side 1  free  transition at x/c =  0.3622   66
 Side 2 forced transition at x/c =  1.0001   65

   2   rms: 0.4276E-01   max: -.4884E+00   D at   67  1
       a = 12.000      CL =  1.4700
      Cm = -0.0490     CD =  0.02264   =>   CDf =  0.00600    CDp =  0.01664

 Side 1  free  transition at x/c =  0.3656   67
 Side 2 forced transition at x/c =  1.0001   65

   3   rms: 0.6924E-02   max: -.7095E-01   D at   68  1
       a = 12.000      CL =  1.4689
      Cm = -0.0491     CD =  0.02301   =>   CDf =  0.00594    CDp =  0.01707

 Side 1  free  transition at x/c =  0.3633   66
 Side 2 forced transition at x/c =  1.0001   65

   4   rms: 0.8473E-03   max: -.9336E-02   C at   66  1
       a = 12.000      CL =  1.4689
      Cm = -0.0491     CD =  0.02303   =>   CDf =  0.00600    CDp =  0.01703

 Side 1  free  transition at x/c =  0.3631   66
 Side 2 forced transition at x/c =  1.0001   65

   5   rms: 0.2099E-04   max: -.1228E-03   D at   89  1
       a = 12.000      CL =  1.4690
      Cm = -0.0492     CD =  0.02303   =>   CDf =  0.00599    CDp =  0.01704

 Point added to stored polar  1
 Point written to save file  000182M0.04.log                                 
 Dump file unspecified or not available
 Calculating wake trajectory ...
 Calculating source influence matrix ...

 Solving BL system ...

 Side 1  free  transition at x/c =  0.3631   66
 Side 2 forced transition at x/c =  1.0001   65

   1   rms: 0.1245E+00   max: 0.4746E+00   D at   87  1   RLX: 0.938
       a = 13.000      CL =  1.4751
      Cm = -0.0379     CD =  0.02698   =>   CDf =  0.00584    CDp =  0.02114

 Side 1  free  transition at x/c =  0.3289   65
 Side 2 forced transition at x/c =  1.0001   64

   2   rms: 0.3540E-01   max: -.5139E+00   D at   66  1   RLX: 0.973
       a = 13.000      CL =  1.4799
      Cm = -0.0383     CD =  0.02735   =>   CDf =  0.00605    CDp =  0.02130

 Side 1  free  transition at x/c =  0.3364   66
 Side 2 forced transition at x/c =  1.0001   64

   3   rms: 0.1231E-01   max: 0.1873E+00   C at   66  1
       a = 13.000      CL =  1.4805
      Cm = -0.0388     CD =  0.02761   =>   CDf =  0.00577    CDp =  0.02184

 Side 1  free  transition at x/c =  0.3320   66
 Side 2 forced transition at x/c =  1.0001   64

   4   rms: 0.2535E-02   max: -.1677E-01   D at   67  1
       a = 13.000      CL =  1.4818
      Cm = -0.0389     CD =  0.02753   =>   CDf =  0.00587    CDp =  0.02166

 Side 1  free  transition at x/c =  0.3317   66
 Side 2 forced transition at x/c =  1.0001   64

   5   rms: 0.7078E-04   max: -.4413E-03   D at   87  1
       a = 13.000      CL =  1.4819
      Cm = -0.0389     CD =  0.02753   =>   CDf =  0.00588    CDp =  0.02165

 Point added to stored polar  1
 Point written to save file  000182M0.04.log                                 
 Dump file unspecified or not available
 Calculating wake trajectory ...
 Calculating source influence matrix ...

 Solving BL system ...

 Side 1  free  transition at x/c =  0.3317   66
 Side 2 forced transition at x/c =  1.0001   64

   1   rms: 0.1258E+00   max: -.5801E+00   D at   67  1   RLX: 0.786
       a = 14.000      CL =  1.4924
      Cm = -0.0317     CD =  0.03171   =>   CDf =  0.00573    CDp =  0.02598

 Side 1  free  transition at x/c =  0.3022   65
 Side 2 forced transition at x/c =  1.0001   63

   2   rms: 0.4895E-01   max: 0.3440E+00   D at   86  1
       a = 14.000      CL =  1.4805
      Cm = -0.0303     CD =  0.03460   =>   CDf =  0.00590    CDp =  0.02871

 Side 1  free  transition at x/c =  0.2939   64
 Side 2 forced transition at x/c =  1.0001   63

   3   rms: 0.4046E-02   max: 0.5947E-01   D at   85  1
       a = 14.000      CL =  1.4819
      Cm = -0.0305     CD =  0.03435   =>   CDf =  0.00586    CDp =  0.02848

 Side 1  free  transition at x/c =  0.2940   64
 Side 2 forced transition at x/c =  1.0001   63

   4   rms: 0.1589E-03   max: 0.2129E-02   D at   84  1
       a = 14.000      CL =  1.4820
      Cm = -0.0305     CD =  0.03433   =>   CDf =  0.00584    CDp =  0.02849

 Side 1  free  transition at x/c =  0.2940   64
 Side 2 forced transition at x/c =  1.0001   63

   5   rms: 0.3982E-05   max: 0.2944E-04   D at   84  1
       a = 14.000      CL =  1.4820
      Cm = -0.0305     CD =  0.03433   =>   CDf =  0.00584    CDp =  0.02849

 Point added to stored polar  1
 Point written to save file  000182M0.04.log                                 
 Dump file unspecified or not available
 Calculating wake trajectory ...
 Calculating source influence matrix ...

 Solving BL system ...

 Side 1  free  transition at x/c =  0.2940   64
 Side 2 forced transition at x/c =  1.0001   63

   1   rms: 0.1292E+00   max: 0.5579E+00   D at   83  1   RLX: 0.650
       a = 15.000      CL =  1.4837
      Cm = -0.0266     CD =  0.03977   =>   CDf =  0.00586    CDp =  0.03391

 Side 1  free  transition at x/c =  0.2580   62
 Side 2 forced transition at x/c =  1.0001   63

   2   rms: 0.5520E-01   max: 0.3980E+00   D at   83  1
       a = 15.000      CL =  1.4671
      Cm = -0.0242     CD =  0.04440   =>   CDf =  0.00601    CDp =  0.03838

 Side 1  free  transition at x/c =  0.2433   61
 Side 2 forced transition at x/c =  1.0001   63

   3   rms: 0.1042E-01   max: 0.1034E+00   D at   82  1
       a = 15.000      CL =  1.4609
      Cm = -0.0240     CD =  0.04462   =>   CDf =  0.00594    CDp =  0.03867

 Side 1  free  transition at x/c =  0.2456   61
 Side 2 forced transition at x/c =  1.0001   63

   4   rms: 0.8004E-03   max: 0.1270E-01   D at   81  1
       a = 15.000      CL =  1.4605
      Cm = -0.0240     CD =  0.04460   =>   CDf =  0.00589    CDp =  0.03871

 Side 1  free  transition at x/c =  0.2457   61
 Side 2 forced transition at x/c =  1.0001   63

   5   rms: 0.1362E-04   max: 0.1105E-03   D at   74  2
       a = 15.000      CL =  1.4605
      Cm = -0.0240     CD =  0.04460   =>   CDf =  0.00589    CDp =  0.03871

 Point added to stored polar  1
 Point written to save file  000182M0.04.log                                 
 Dump file unspecified or not available

.OPERva   c>  
 XFOIL   c>  
0.1
resp: 
 ===================================================
  XFOIL Version 6.97
  Copyright (C) 2000   Mark Drela, Harold Youngren

  This software comes with ABSOLUTELY NO WARRANTY,
    subject to the GNU General Public License.

  Caveat computor
 ===================================================

 File  xfoil.def  not found

   QUIT    Exit program

  .OPER    Direct operating point(s)
  .MDES    Complex mapping design routine
  .QDES    Surface speed design routine
  .GDES    Geometry design routine

   SAVE f  Write airfoil to labeled coordinate file
   PSAV f  Write airfoil to plain coordinate file
   ISAV f  Write airfoil to ISES coordinate file
   MSAV f  Write airfoil to MSES coordinate file
   REVE    Reverse written-airfoil node ordering
   DELI i  Change written-airfoil file delimiters

   LOAD f  Read buffer airfoil from coordinate file
   NACA i  Set NACA 4,5-digit airfoil and buffer airfoil
   INTE    Set buffer airfoil by interpolating two airfoils
   NORM    Buffer airfoil normalization toggle
   HALF    Halve the number of points in buffer airfoil
   XYCM rr Change CM reference location, currently  0.25000 0.00000

   BEND    Display structural properties of current airfoil

   PCOP    Set current-airfoil panel nodes directly from buffer airfoil points
   PANE    Set current-airfoil panel nodes ( 160 ) based on curvature
  .PPAR    Show/change paneling

  .PLOP    Plotting options

   WDEF f  Write  current-settings file
   RDEF f  Reread current-settings file
   NAME s  Specify new airfoil name
   NINC    Increment name version number

   Z       Zoom    | (available in all menus)
   U       Unzoom  | 

 XFOIL   c>   ...............................................

  G raphics-enable flag:        T
  S ize of plot object          10.00"
  A spect ratio of plot object   0.5500
  P age dimensions              11.00 x  8.50"
  M argins from page edges       0.00",  0.00"
  F ont size (relative)          0.0150
  W indow/screen size fraction   0.8000
  B lowup input method:        Cursor    
  O rientation of plot:        Landscape 
  C olor PostScript output?     F

      Option, Value   (or <Return>)    c>   ...............................................

  G raphics-enable flag:        F
  S ize of plot object          10.00"
  A spect ratio of plot object   0.5500
  P age dimensions              11.00 x  8.50"
  M argins from page edges       0.00",  0.00"
  F ont size (relative)          0.0150
  W indow/screen size fraction   0.8000
  B lowup input method:        Cursor    
  O rientation of plot:        Landscape 
  C olor PostScript output?     F

      Option, Value   (or <Return>)    c>  
 XFOIL   c>  
 Labeled airfoil file.  Name:  000182                                          

 Number of input coordinate points: 200
 Clockwise ordering
 Max thickness =     0.193814  at x =   0.232
 Max camber    =     0.046911  at x =   0.453

  LE  x,y  =  -0.00000  -0.00048  |   Chord =   0.99988
  TE  x,y  =   0.99988   0.00003  |

 Current airfoil nodes set from buffer airfoil nodes ( 200 )

 XFOIL   c>  
 You are working with the buffer airfoil

.GDES   c>  
  i       x        y      angle
   2   0.9990   0.0003   -0.015
   3   0.9978   0.0006    0.024
   4   0.9961   0.0011   -0.007
   5   0.9938   0.0017    0.005
   6   0.9911   0.0024   -0.001
   7   0.9880   0.0033    0.004
   8   0.9843   0.0043   -0.001
   9   0.9801   0.0055   -0.005
  10   0.9755   0.0067    0.003
  11   0.9704   0.0081   -0.001
  12   0.9649   0.0097   -0.005
  13   0.9589   0.0113    0.005
  14   0.9524   0.0131   -0.004
  15   0.9455   0.0150    0.000
  16   0.9382   0.0170    0.001
  17   0.9304   0.0192    0.001
  18   0.9222   0.0215   -0.000
  19   0.9135   0.0238    0.003
  20   0.9045   0.0263    0.004
  21   0.8951   0.0289    0.004
  22   0.8853   0.0316    0.014
  23   0.8751   0.0344    0.016
  24   0.8645   0.0373    0.023
  25   0.8536   0.0403    0.021
  26   0.8423   0.0434    0.036
  27   0.8307   0.0466    0.045
  28   0.8187   0.0499    0.055
  29   0.8065   0.0532    0.065
  30   0.7939   0.0566    0.076
  31   0.7810   0.0600    0.097
  32   0.7679   0.0635    0.109
  33   0.7545   0.0671    0.129
  34   0.7409   0.0707    0.149
  35   0.7270   0.0743    0.167
  36   0.7129   0.0779    0.200
  37   0.6986   0.0815    0.218
  38   0.6841   0.0851    0.247
  39   0.6694   0.0887    0.281
  40   0.6545   0.0923    0.304
  41   0.6395   0.0958    0.339
  42   0.6243   0.0992    0.374
  43   0.6091   0.1026    0.412
  44   0.5937   0.1059    0.446
  45   0.5782   0.1090    0.484
  46   0.5627   0.1121    0.525
  47   0.5471   0.1150    0.562
  48   0.5314   0.1178    0.608
  49   0.5157   0.1204    0.646
  50   0.5000   0.1228    0.685
  51   0.4843   0.1250    0.735
  52   0.4686   0.1270    0.768
  53   0.4529   0.1288    0.811
  54   0.4373   0.1304    0.850
  55   0.4218   0.1317    0.892
  56   0.4063   0.1328    0.922
  57   0.3909   0.1337    0.966
  58   0.3757   0.1342    0.996
  59   0.3605   0.1345    1.028
  60   0.3455   0.1345    1.051
  61   0.3306   0.1343    1.082
  62   0.3159   0.1338    1.105
  63   0.3014   0.1330    1.127
  64   0.2871   0.1319    1.136
  65   0.2730   0.1306    1.160
  66   0.2591   0.1290    1.167
  67   0.2455   0.1271    1.178
  68   0.2321   0.1250    1.177
  69   0.2190   0.1227    1.194
  70   0.2061   0.1201    1.187
  71   0.1935   0.1174    1.193
  72   0.1813   0.1144    1.191
  73   0.1693   0.1112    1.198
  74   0.1577   0.1079    1.196
  75   0.1464   0.1044    1.206
  76   0.1355   0.1007    1.205
  77   0.1249   0.0969    1.223
  78   0.1147   0.0931    1.237
  79   0.1049   0.0891    1.265
  80   0.0955   0.0850    1.286
  81   0.0865   0.0808    1.332
  82   0.0778   0.0766    1.390
  83   0.0696   0.0724    1.461
  84   0.0618   0.0681    1.537
  85   0.0545   0.0638    1.646
  86   0.0476   0.0595    1.782
  87   0.0411   0.0551    1.946
  88   0.0351   0.0508    2.126
  89   0.0296   0.0465    2.375
  90   0.0245   0.0422    2.644
  91   0.0199   0.0379    2.973
  92   0.0157   0.0336    3.381
  93   0.0120   0.0293    3.793
  94   0.0089   0.0251    4.324
  95   0.0062   0.0209    4.845
  96   0.0039   0.0167    5.400
  97   0.0022   0.0125    5.939
  98   0.0010   0.0083    6.371
  99   0.0002   0.0042    6.675
 100   0.0000   0.0000    5.878
 101   0.0002  -0.0057    4.961
 102   0.0010  -0.0114    4.962
 103   0.0022  -0.0170    4.978
 104   0.0039  -0.0225    4.965
 105   0.0062  -0.0279    4.957
 106   0.0089  -0.0331    4.947
 107   0.0120  -0.0381    4.878
 108   0.0157  -0.0430    4.823
 109   0.0199  -0.0476    4.725
 110   0.0245  -0.0519    4.582
 111   0.0296  -0.0560    4.421
 112   0.0351  -0.0598    4.244
 113   0.0411  -0.0633    4.020
 114   0.0476  -0.0665    3.801
 115   0.0545  -0.0693    3.553
 116   0.0618  -0.0718    3.305
 117   0.0696  -0.0739    3.052
 118   0.0778  -0.0757    2.813
 119   0.0865  -0.0772    2.562
 120   0.0955  -0.0783    2.337
 121   0.1049  -0.0790    2.102
 122   0.1147  -0.0795    1.896
 123   0.1249  -0.0796    1.697
 124   0.1355  -0.0794    1.505
 125   0.1464  -0.0789    1.324
 126   0.1577  -0.0781    1.156
 127   0.1693  -0.0771    1.004
 128   0.1813  -0.0758    0.852
 129   0.1935  -0.0743    0.720
 130   0.2061  -0.0727    0.591
 131   0.2190  -0.0708    0.473
 132   0.2321  -0.0688    0.363
 133   0.2455  -0.0667    0.261
 134   0.2591  -0.0644    0.161
 135   0.2730  -0.0621    0.082
 136   0.2871  -0.0597   -0.010
 137   0.3014  -0.0573   -0.077
 138   0.3159  -0.0549   -0.145
 139   0.3306  -0.0525   -0.209
 140   0.3455  -0.0501   -0.258
 141   0.3605  -0.0478   -0.313
 142   0.3757  -0.0455   -0.350
 143   0.3909  -0.0433   -0.386
 144   0.4063  -0.0412   -0.421
 145   0.4218  -0.0392   -0.435
 146   0.4373  -0.0373   -0.462
 147   0.4529  -0.0355   -0.471
 148   0.4686  -0.0339   -0.471
 149   0.4843  -0.0323   -0.479
 150   0.5000  -0.0309   -0.471
 151   0.5157  -0.0297   -0.464
 152   0.5314  -0.0286   -0.443
 153   0.5471  -0.0275   -0.428
 154   0.5627  -0.0267   -0.406
 155   0.5782  -0.0259   -0.374
 156   0.5937  -0.0252   -0.346
 157   0.6091  -0.0246   -0.307
 158   0.6243  -0.0241   -0.276
 159   0.6395  -0.0237   -0.234
 160   0.6545  -0.0234   -0.191
 161   0.6694  -0.0231   -0.151
 162   0.6841  -0.0228   -0.102
 163   0.6986  -0.0226   -0.056
 164   0.7129  -0.0224   -0.016
 165   0.7270  -0.0222    0.038
 166   0.7409  -0.0220    0.078
 167   0.7545  -0.0218    0.124
 168   0.7679  -0.0215    0.169
 169   0.7810  -0.0213    0.209
 170   0.7939  -0.0210    0.256
 171   0.8065  -0.0206    0.289
 172   0.8187  -0.0202    0.325
 173   0.8307  -0.0197    0.364
 174   0.8423  -0.0191    0.389
 175   0.8536  -0.0185    0.421
 176   0.8645  -0.0179    0.441
 177   0.8751  -0.0172    0.466
 178   0.8853  -0.0164    0.481
 179   0.8951  -0.0155    0.496
 180   0.9045  -0.0147    0.498
 181   0.9135  -0.0137    0.511
 182   0.9222  -0.0128    0.506
 183   0.9304  -0.0118    0.509
 184   0.9382  -0.0108    0.497
 185   0.9455  -0.0098    0.493
 186   0.9524  -0.0088    0.467
 187   0.9589  -0.0077    0.458
 188   0.9649  -0.0068    0.442
 189   0.9704  -0.0058    0.399
 190   0.9755  -0.0049    0.382
 191   0.9801  -0.0040    0.360
 192   0.9843  -0.0033    0.316
 193   0.9880  -0.0025    0.276
 194   0.9911  -0.0019    0.255
 195   0.9938  -0.0013    0.198
 196   0.9961  -0.0009    0.197
 197   0.9978  -0.0005    0.115
 198   0.9990  -0.0002    0.047
 199   0.9998  -0.0001    0.058

 Maximum panel corner angle =  6.675   at  i,x,y  =  99   0.0002   0.0042

 Enter corner angle criterion for refinement (deg):   3.338
 Enter type of spline parameter (1=uniform, 2=arclength):   1
 Enter refinement x limits:  -0.10000   1.10000
 Number of points added:           48
 Max thickness =     0.193829  at x =   0.232
 Max camber    =     0.046651  at x =   0.453

 Maximum panel corner angle =  3.052   at  i,x,y  = 165   0.0696  -0.0739

.GDES   c>  
 Buffer airfoil is not identical to current airfoil

 XFOIL   c>  
 Blunt trailing edge.  Gap =  0.00026

 Paneling parameters used...
   Number of panel nodes       160
   Panel bunching parameter    1.000
   TE/LE panel density ratio   0.150
   Refined-area/LE panel density ratio    0.200
   Top    side refined area x/c limits  1.000 1.000
   Bottom side refined area x/c limits  1.000 1.000

 XFOIL   c>  
.OPERi   c>   Current iteration limit:          20

Enter new iteration limit   i>  
Enter new iteration limit   i>  
Enter new iteration limit   i>  
.OPERi   c>  
 M  =    0.0000
 Re =  0.3000E+06

.OPERv   c>  
 Sonic Cp =    -66.86      Sonic Q/Qinf =     9.138


.OPERv   c>  
 Polar  1 newly created for accumulation
 Airfoil archived with polar: 000182                                          

Enter  polar save filename  OR  <return> for no file   s>  
 New polar save file available

Enter  polar dump filename  OR  <return> for no file   s>  
 Polar dump file will NOT be written

 Polar accumulation enabled

.OPERva   c>   Calculating unit vorticity distributions ...
 Calculating wake trajectory ...
 Calculating source influence matrix ...

 Solving BL system ...

 Initializing BL ...
    side            1  ...
 MRCHUE: Inverse mode at  56     Hk =   4.159
 MRCHUE: Inverse mode at  57     Hk =   4.953
 MRCHUE: Inverse mode at  58     Hk =   5.734
 MRCHUE: Inverse mode at  59     Hk =   6.509
 MRCHUE: Inverse mode at  60     Hk =   7.282
 MRCHUE: Inverse mode at  61     Hk =   8.056
 MRCHUE: Inverse mode at  62     Hk =   8.832
 MRCHUE: Inverse mode at  63     Hk =   8.651
 MRCHUE: Inverse mode at  64     Hk =   5.230
 MRCHUE: Inverse mode at  65     Hk =   3.435
 MRCHUE: Convergence failed at  84  side 1    Res =  0.1280E+03
    side            2  ...
 MRCHUE: Inverse mode at  35     Hk =   3.989
 MRCHUE: Inverse mode at  36     Hk =   4.778
 MRCHUE: Inverse mode at  37     Hk =   5.584
 MRCHUE: Inverse mode at  38     Hk =   6.415
 MRCHUE: Inverse mode at  39     Hk =   7.283
 MRCHUE: Inverse mode at  40     Hk =   8.192
 MRCHUE: Inverse mode at  41     Hk =   9.148
 MRCHUE: Inverse mode at  42     Hk =   8.043
 MRCHUE: Inverse mode at  43     Hk =   4.024
 MRCHUE: Inverse mode at  44     Hk =   2.500
 MRCHUE: Convergence failed at  78  side 2    Res =  0.1212E+02
 MRCHUE: Convergence failed at  80  side 2    Res =  0.6130E-01

 MRCHDU: Convergence failed at  84  side 1    Res =  0.1300E+03
 MRCHDU: Convergence failed at  78  side 2    Res =  0.1716E+01
 MRCHDU: Convergence failed at  80  side 2    Res =  0.6129E-01
 Side 1  free  transition at x/c =  0.5500   63
 Side 2  free  transition at x/c =  0.2437   42

   1   rms: 0.8874E+00   max: 0.4584E+01   D at   80  2   RLX: 0.327
       a =  2.000      CL =  0.6423
      Cm = -0.0994     CD =  0.00468   =>   CDf =  0.00839    CDp = -0.00371

 Side 1  free  transition at x/c =  0.5550   64
 Side 2  free  transition at x/c =  0.2463   42

   2   rms: 0.3670E+00   max: 0.1692E+01   D at   81  2   RLX: 0.887
       a =  2.000      CL =  0.6033
      Cm = -0.0910     CD =  0.01126   =>   CDf =  0.00850    CDp =  0.00276

 Side 1  free  transition at x/c =  0.5609   64
 Side 2  free  transition at x/c =  0.2465   42

   3   rms: 0.3577E-01   max: -.2410E+00   D at   81  2
       a =  2.000      CL =  0.5864
      Cm = -0.0875     CD =  0.01546   =>   CDf =  0.00833    CDp =  0.00713

 Side 1  free  transition at x/c =  0.5611   64
 Side 2  free  transition at x/c =  0.2449   42

   4   rms: 0.2828E-02   max: -.3170E-01   D at   81  2
       a =  2.000      CL =  0.5853
      Cm = -0.0873     CD =  0.01557   =>   CDf =  0.00821    CDp =  0.00736

 Side 1  free  transition at x/c =  0.5610   64
 Side 2  free  transition at x/c =  0.2448   42

   5   rms: 0.6394E-04   max: -.5964E-03   D at   81  2
       a =  2.000      CL =  0.5852
      Cm = -0.0873     CD =  0.01557   =>   CDf =  0.00821    CDp =  0.00736

 Point added to stored polar  1
 Point written to save file  000182M0.1.log                                  
 Dump file unspecified or not available
 Calculating wake trajectory ...
 Calculating source influence matrix ...

 Solving BL system ...

 Side 1  free  transition at x/c =  0.5610   64
 Side 2  free  transition at x/c =  0.2448   42

   1   rms: 0.1368E+00   max: -.6320E+00   T at   42  2   RLX: 0.791
       a =  3.000      CL =  0.6716
      Cm = -0.0860     CD =  0.01557   =>   CDf =  0.00809    CDp =  0.00748

 Side 1  free  transition at x/c =  0.5504   64
 Side 2  free  transition at x/c =  0.2660   42

   2   rms: 0.4707E-01   max: 0.6144E+00   D at   42  2
       a =  3.000      CL =  0.6897
      Cm = -0.0850     CD =  0.01552   =>   CDf =  0.00812    CDp =  0.00740

 Side 1  free  transition at x/c =  0.5444   64
 Side 2  free  transition at x/c =  0.2677   42

   3   rms: 0.9267E-02   max: 0.1080E+00   D at   42  2
       a =  3.000      CL =  0.6909
      Cm = -0.0852     CD =  0.01567   =>   CDf =  0.00814    CDp =  0.00753

 Side 1  free  transition at x/c =  0.5447   64
 Side 2  free  transition at x/c =  0.2656   42

   4   rms: 0.1902E-03   max: -.2298E-02   D at   44  2
       a =  3.000      CL =  0.6909
      Cm = -0.0852     CD =  0.01567   =>   CDf =  0.00814    CDp =  0.00753

 Side 1  free  transition at x/c =  0.5447   64
 Side 2  free  transition at x/c =  0.2655   42

   5   rms: 0.1162E-05   max: 0.1019E-04   D at    2  2
       a =  3.000      CL =  0.6909
      Cm = -0.0852     CD =  0.01567   =>   CDf =  0.00814    CDp =  0.00753

 Point added to stored polar  1
 Point written to save file  000182M0.1.log                                  
 Dump file unspecified or not available
 Calculating wake trajectory ...
 Calculating source influence matrix ...

 Solving BL system ...

 Side 1  free  transition at x/c =  0.5447   64
 Side 2  free  transition at x/c =  0.2655   42

   1   rms: 0.1342E+00   max: -.6569E+00   T at   42  2   RLX: 0.761
       a =  4.000      CL =  0.7697
      Cm = -0.0832     CD =  0.01581   =>   CDf =  0.00785    CDp =  0.00796

 MRCHDU: Convergence failed at  42  side 2    Res =  0.3900E+01
 MRCHDU: Convergence failed at  43  side 2    Res =  0.2273E+01
 MRCHDU: Convergence failed at  44  side 2    Res =  0.2740E+01
 MRCHDU: Convergence failed at  45  side 2    Res =  0.4440E+01
 MRCHDU: Convergence failed at  46  side 2    Res =  0.6310E+01
 MRCHDU: Convergence failed at  47  side 2    Res =  0.7891E+01
 MRCHDU: Convergence failed at  48  side 2    Res =  0.8910E+01
 MRCHDU: Convergence failed at  49  side 2    Res =  0.9250E+01
 MRCHDU: Convergence failed at  50  side 2    Res =  0.9109E+01
 MRCHDU: Convergence failed at  51  side 2    Res =  0.8607E+01
 MRCHDU: Convergence failed at  52  side 2    Res =  0.7925E+01
 MRCHDU: Convergence failed at  53  side 2    Res =  0.7137E+01
 MRCHDU: Convergence failed at  54  side 2    Res =  0.6283E+01
 MRCHDU: Convergence failed at  55  side 2    Res =  0.5366E+01
 MRCHDU: Convergence failed at  56  side 2    Res =  0.4547E+01
 MRCHDU: Convergence failed at  57  side 2    Res =  0.3463E+01
 MRCHDU: Convergence failed at  58  side 2    Res =  0.2746E+01
 MRCHDU: Convergence failed at  59  side 2    Res =  0.2215E+01
 MRCHDU: Convergence failed at  60  side 2    Res =  0.3279E+01
 MRCHDU: Convergence failed at  61  side 2    Res =  0.3029E+01
 MRCHDU: Convergence failed at  62  side 2    Res =  0.3087E+01
 MRCHDU: Convergence failed at  63  side 2    Res =  0.3172E+01
 MRCHDU: Convergence failed at  64  side 2    Res =  0.4883E+01
 MRCHDU: Convergence failed at  65  side 2    Res =  0.6648E+01
 MRCHDU: Convergence failed at  66  side 2    Res =  0.1059E+02
 MRCHDU: Convergence failed at  67  side 2    Res =  0.1967E+02
 MRCHDU: Convergence failed at  68  side 2    Res =  0.4312E+02
 MRCHDU: Convergence failed at  69  side 2    Res =  0.2566E+04
 MRCHDU: Convergence failed at  70  side 2    Res =  0.9894E+04
 MRCHDU: Convergence failed at  71  side 2    Res =  0.8767E+02
 MRCHDU: Convergence failed at  72  side 2    Res =  0.7119E+02
 MRCHDU: Convergence failed at  73  side 2    Res =  0.1397E+03
 MRCHDU: Convergence failed at  74  side 2    Res =  0.1868E+02
 MRCHDU: Convergence failed at  75  side 2    Res =  0.2717E+02
 Side 1  free  transition at x/c =  0.5322   65
 Side 2  free  transition at x/c =  0.2870   41

   2   rms: 0.2982E+00   max: 0.3243E+01   D at    2  1   RLX: 0.349
       a =  4.000      CL =  0.7211
      Cm = -0.0544     CD =  0.01301   =>   CDf =  0.00519    CDp =  0.00782

 Side 1  free  transition at x/c =  0.5302   65
 Side 2  free  transition at x/c =  0.2849   41

   3   rms: 0.1051E+00   max: -.8271E+00   D at   43  2   RLX: 0.605
       a =  4.000      CL =  0.7822
      Cm = -0.0758     CD =  0.01625   =>   CDf =  0.00888    CDp =  0.00738

 Side 1  free  transition at x/c =  0.5293   65
 Side 2  free  transition at x/c =  0.2898   41

   4   rms: 0.1323E+00   max: -.9525E+00   D at   74  2   RLX: 0.525
       a =  4.000      CL =  0.7246
      Cm = -0.0663     CD =  0.01618   =>   CDf =  0.00843    CDp =  0.00775

 Side 1  free  transition at x/c =  0.5303   64
 Side 2  free  transition at x/c =  0.2857   42

   5   rms: 0.6343E-01   max: -.7958E+00   D at   74  2   RLX: 0.628
       a =  4.000      CL =  0.7213
      Cm = -0.0666     CD =  0.01576   =>   CDf =  0.00818    CDp =  0.00759

 Side 1  free  transition at x/c =  0.5303   64
 Side 2  free  transition at x/c =  0.2850   42

   6   rms: 0.4568E-01   max: -.5607E+00   D at   75  2   RLX: 0.892
       a =  4.000      CL =  0.7565
      Cm = -0.0747     CD =  0.01575   =>   CDf =  0.00799    CDp =  0.00776

 Side 1  free  transition at x/c =  0.5296   65
 Side 2  free  transition at x/c =  0.2868   41

   7   rms: 0.2974E-01   max: -.2223E+00   D at   74  2
       a =  4.000      CL =  0.7935
      Cm = -0.0825     CD =  0.01586   =>   CDf =  0.00809    CDp =  0.00777

 Side 1  free  transition at x/c =  0.5288   65
 Side 2  free  transition at x/c =  0.2894   41

   8   rms: 0.2631E-02   max: -.2411E-01   D at   74  2
       a =  4.000      CL =  0.7966
      Cm = -0.0831     CD =  0.01589   =>   CDf =  0.00809    CDp =  0.00780

 Side 1  free  transition at x/c =  0.5288   65
 Side 2  free  transition at x/c =  0.2895   41

   9   rms: 0.2290E-04   max: -.3157E-03   D at   74  2
       a =  4.000      CL =  0.7967
      Cm = -0.0831     CD =  0.01589   =>   CDf =  0.00809    CDp =  0.00780

 Point added to stored polar  1
 Point written to save file  000182M0.1.log                                  
 Dump file unspecified or not available
 Calculating wake trajectory ...
 Calculating source influence matrix ...

 Solving BL system ...

 Side 1  free  transition at x/c =  0.5288   65
 Side 2  free  transition at x/c =  0.2895   41

   1   rms: 0.1333E+00   max: 0.7447E+00   C at   41  2   RLX: 0.676
       a =  5.000      CL =  0.8601
      Cm = -0.0802     CD =  0.01622   =>   CDf =  0.00794    CDp =  0.00827

 MRCHDU: Convergence failed at  42  side 2    Res =  0.3941E+02
 MRCHDU: Convergence failed at  43  side 2    Res =  0.1822E+01
 MRCHDU: Convergence failed at  44  side 2    Res =  0.2119E+01
 MRCHDU: Convergence failed at  45  side 2    Res =  0.2761E+01
 MRCHDU: Convergence failed at  46  side 2    Res =  0.3138E+01
 MRCHDU: Convergence failed at  47  side 2    Res =  0.3330E+01
 MRCHDU: Convergence failed at  48  side 2    Res =  0.3348E+01
 MRCHDU: Convergence failed at  49  side 2    Res =  0.3268E+01
 MRCHDU: Convergence failed at  50  side 2    Res =  0.3087E+01
 MRCHDU: Convergence failed at  51  side 2    Res =  0.2697E+01
 MRCHDU: Convergence failed at  52  side 2    Res =  0.2364E+01
 MRCHDU: Convergence failed at  53  side 2    Res =  0.2093E+01
 MRCHDU: Convergence failed at  54  side 2    Res =  0.2806E+01
 MRCHDU: Convergence failed at  55  side 2    Res =  0.2610E+01
 MRCHDU: Convergence failed at  56  side 2    Res =  0.2431E+01
 MRCHDU: Convergence failed at  57  side 2    Res =  0.2417E+01
 MRCHDU: Convergence failed at  58  side 2    Res =  0.2325E+01
 MRCHDU: Convergence failed at  59  side 2    Res =  0.2392E+01
 MRCHDU: Convergence failed at  60  side 2    Res =  0.5749E+01
 MRCHDU: Convergence failed at  61  side 2    Res =  0.9601E+01
 MRCHDU: Convergence failed at  62  side 2    Res =  0.6163E+02
 Side 1  free  transition at x/c =  0.5161   66
 Side 2  free  transition at x/c =  0.3110   41

   2   rms: 0.1608E+00   max: -.9183E+00   D at   62  2   RLX: 0.544
       a =  5.000      CL =  0.8163
      Cm = -0.0642     CD =  0.01464   =>   CDf =  0.00607    CDp =  0.00857

 Side 1  free  transition at x/c =  0.5148   66
 Side 2  free  transition at x/c =  0.3013   41

   3   rms: 0.8164E-01   max: -.7939E+00   D at   43  2   RLX: 0.630
       a =  5.000      CL =  0.8728
      Cm = -0.0750     CD =  0.01683   =>   CDf =  0.00853    CDp =  0.00830

 Side 1  free  transition at x/c =  0.5136   66
 Side 2  free  transition at x/c =  0.3110   41

   4   rms: 0.6299E-01   max: -.8958E+00   D at   43  2   RLX: 0.558
       a =  5.000      CL =  0.8921
      Cm = -0.0788     CD =  0.01661   =>   CDf =  0.00823    CDp =  0.00838

 MRCHDU: Convergence failed at  42  side 2    Res =  0.2616E+01
 MRCHDU: Convergence failed at  43  side 2    Res =  0.7189E+01
 MRCHDU: Convergence failed at  44  side 2    Res =  0.2414E+01
 MRCHDU: Convergence failed at  45  side 2    Res =  0.5677E+01
 MRCHDU: Convergence failed at  46  side 2    Res =  0.1133E+02
 MRCHDU: Convergence failed at  47  side 2    Res =  0.1771E+02
 MRCHDU: Convergence failed at  48  side 2    Res =  0.2153E+02
 MRCHDU: Convergence failed at  49  side 2    Res =  0.2192E+02
 MRCHDU: Convergence failed at  50  side 2    Res =  0.1971E+02
 MRCHDU: Convergence failed at  51  side 2    Res =  0.1663E+02
 MRCHDU: Convergence failed at  52  side 2    Res =  0.1354E+02
 MRCHDU: Convergence failed at  53  side 2    Res =  0.1077E+02
 MRCHDU: Convergence failed at  54  side 2    Res =  0.8314E+01
 MRCHDU: Convergence failed at  55  side 2    Res =  0.6421E+01
 MRCHDU: Convergence failed at  56  side 2    Res =  0.4946E+01
 MRCHDU: Convergence failed at  57  side 2    Res =  0.3815E+01
 MRCHDU: Convergence failed at  58  side 2    Res =  0.2961E+01
 MRCHDU: Convergence failed at  59  side 2    Res =  0.2312E+01
 MRCHDU: Convergence failed at  60  side 2    Res =  0.2139E+01
 MRCHDU: Convergence failed at  61  side 2    Res =  0.2128E+01
 Side 1  free  transition at x/c =  0.5130   66
 Side 2  free  transition at x/c =  0.3214   42

   5   rms: 0.2154E+00   max: -.1223E+01   D at   59  2   RLX: 0.409
       a =  5.000      CL =  0.8464
      Cm = -0.0667     CD =  0.01459   =>   CDf =  0.00597    CDp =  0.00862

 Side 1  free  transition at x/c =  0.5129   66
 Side 2  free  transition at x/c =  0.3207   42

   6   rms: 0.5753E-01   max: 0.3938E+00   D at   44  2
       a =  5.000      CL =  0.9028
      Cm = -0.0812     CD =  0.01607   =>   CDf =  0.00820    CDp =  0.00787

 Side 1  free  transition at x/c =  0.5126   65
 Side 2  free  transition at x/c =  0.3204   42

   7   rms: 0.2418E-02   max: -.3019E-01   D at   44  2
       a =  5.000      CL =  0.9029
      Cm = -0.0812     CD =  0.01609   =>   CDf =  0.00796    CDp =  0.00813

 Side 1  free  transition at x/c =  0.5126   65
 Side 2  free  transition at x/c =  0.3199   42

   8   rms: 0.2726E-04   max: -.5205E-03   D at   44  2
       a =  5.000      CL =  0.9029
      Cm = -0.0812     CD =  0.01609   =>   CDf =  0.00796    CDp =  0.00813

 Point added to stored polar  1
 Point written to save file  000182M0.1.log                                  
 Dump file unspecified or not available
 Calculating wake trajectory ...
 Calculating source influence matrix ...

 Solving BL system ...

 Side 1  free  transition at x/c =  0.5126   65
 Side 2  free  transition at x/c =  0.3199   42

   1   rms: 0.1322E+00   max: -.7176E+00   T at   42  2   RLX: 0.697
       a =  6.000      CL =  0.9574
      Cm = -0.0765     CD =  0.01622   =>   CDf =  0.00781    CDp =  0.00841

 Side 1  free  transition at x/c =  0.4998   66
 Side 2  free  transition at x/c =  0.3369   42

   2   rms: 0.1182E+00   max: -.7702E+00   T at   42  2   RLX: 0.649
       a =  6.000      CL =  0.9869
      Cm = -0.0777     CD =  0.01614   =>   CDf =  0.00773    CDp =  0.00842

 Side 1  free  transition at x/c =  0.4974   67
 Side 2  free  transition at x/c =  0.3558   41

   3   rms: 0.2132E-01   max: -.1326E+00   D at   40  2
       a =  6.000      CL =  0.9990
      Cm = -0.0775     CD =  0.01638   =>   CDf =  0.00777    CDp =  0.00861

 Side 1  free  transition at x/c =  0.4962   67
 Side 2  free  transition at x/c =  0.3566   42

   4   rms: 0.5853E-02   max: -.7969E-01   D at   41  2
       a =  6.000      CL =  0.9988
      Cm = -0.0775     CD =  0.01639   =>   CDf =  0.00776    CDp =  0.00863

 Side 1  free  transition at x/c =  0.4962   67
 Side 2  free  transition at x/c =  0.3571   42

   5   rms: 0.4332E-03   max: 0.3986E-02   T at   42  2
       a =  6.000      CL =  0.9987
      Cm = -0.0775     CD =  0.01639   =>   CDf =  0.00773    CDp =  0.00866

 Side 1  free  transition at x/c =  0.4962   67
 Side 2  free  transition at x/c =  0.3569   42

   6   rms: 0.5142E-05   max: -.4876E-04   D at   43  2
       a =  6.000      CL =  0.9987
      Cm = -0.0775     CD =  0.01639   =>   CDf =  0.00774    CDp =  0.00865

 Point added to stored polar  1
 Point written to save file  000182M0.1.log                                  
 Dump file unspecified or not available
 Calculating wake trajectory ...
 Calculating source influence matrix ...

 Solving BL system ...

 Side 1  free  transition at x/c =  0.4962   67
 Side 2  free  transition at x/c =  0.3569   42

   1   rms: 0.1685E+00   max: -.9181E+00   T at   42  2   RLX: 0.545
       a =  7.000      CL =  1.0585
      Cm = -0.0770     CD =  0.01626   =>   CDf =  0.00757    CDp =  0.00869

 Side 1  free  transition at x/c =  0.4895   67
 Side 2  free  transition at x/c =  0.3905   42

[...]
      Cm = -0.0642     CD =  0.01658   =>   CDf =  0.00631    CDp =  0.01028

 Side 1  free  transition at x/c =  0.4637   67
 Side 2  free  transition at x/c =  0.6770   54

   7   rms: 0.1396E+02   max: -.2334E+03   C at   54  2   RLX: 0.002
       a =  9.000      CL =  1.1532
      Cm = -0.0641     CD =  0.01653   =>   CDf =  0.00643    CDp =  0.01010

 Side 1  free  transition at x/c =  0.4637   67
 Side 2  free  transition at x/c =  0.6987   55

   8   rms: 0.2573E+02   max: -.4298E+03   C at   55  2   RLX: 0.001
       a =  9.000      CL =  1.1533
      Cm = -0.0641     CD =  0.01648   =>   CDf =  0.00638    CDp =  0.01010

 Side 1  free  transition at x/c =  0.4637   67
 Side 2  free  transition at x/c =  0.7207   56

   9   rms: 0.7497E+02   max: 0.1247E+04   C at   56  2   RLX: 0.001
       a =  9.000      CL =  1.1518
      Cm = -0.0638     CD =  0.01660   =>   CDf =  0.00633    CDp =  0.01028

 Side 1  free  transition at x/c =  0.4637   67
 Side 2  free  transition at x/c =  0.6690   53

  10   rms: 0.1618E+02   max: -.2527E+03   C at   53  2   RLX: 0.002
       a =  9.000      CL =  1.1516
      Cm = -0.0637     CD =  0.01654   =>   CDf =  0.00645    CDp =  0.01009

 Side 1  free  transition at x/c =  0.4636   67
 Side 2  free  transition at x/c =  0.6891   54

  11   rms: 0.3104E+02   max: -.4879E+03   C at   54  2   RLX: 0.001
       a =  9.000      CL =  1.1517
      Cm = -0.0637     CD =  0.01650   =>   CDf =  0.00640    CDp =  0.01010

 Side 1  free  transition at x/c =  0.4636   67
 Side 2  free  transition at x/c =  0.7098   55

  12   rms: 0.1251E+03   max: -.1970E+04   C at   55  2   RLX: 0.000
       a =  9.000      CL =  1.1520
      Cm = -0.0637     CD =  0.01646   =>   CDf =  0.00636    CDp =  0.01010

 Side 1  free  transition at x/c =  0.4636   67
 Side 2  free  transition at x/c =  0.7311   56

  13   rms: 0.1676E+02   max: 0.2626E+03   C at   56  2   RLX: 0.006
       a =  9.000      CL =  1.1493
      Cm = -0.0630     CD =  0.01656   =>   CDf =  0.00630    CDp =  0.01026

 Side 1  free  transition at x/c =  0.4636   67
 Side 2  free  transition at x/c =  0.6812   54

  14   rms: 0.1495E+02   max: -.2461E+03   C at   54  2   RLX: 0.002
       a =  9.000      CL =  1.1491
      Cm = -0.0629     CD =  0.01650   =>   CDf =  0.00642    CDp =  0.01008

 Side 1  free  transition at x/c =  0.4636   67
 Side 2  free  transition at x/c =  0.7026   55

  15   rms: 0.3136E+02   max: -.5165E+03   C at   55  2   RLX: 0.001
       a =  9.000      CL =  1.1492
      Cm = -0.0629     CD =  0.01646   =>   CDf =  0.00637    CDp =  0.01008

 Side 1  free  transition at x/c =  0.4636   67
 Side 2  free  transition at x/c =  0.7244   56

  16   rms: 0.1564E+02   max: 0.2526E+03   C at   56  2   RLX: 0.006
       a =  9.000      CL =  1.1464
      Cm = -0.0623     CD =  0.01656   =>   CDf =  0.00632    CDp =  0.01024

 Side 1  free  transition at x/c =  0.4635   67
 Side 2  free  transition at x/c =  0.6742   54

  17   rms: 0.1469E+02   max: -.2490E+03   C at   54  2   RLX: 0.002
       a =  9.000      CL =  1.1463
      Cm = -0.0621     CD =  0.01650   =>   CDf =  0.00644    CDp =  0.01006

 Side 1  free  transition at x/c =  0.4635   67
 Side 2  free  transition at x/c =  0.6964   55

  18   rms: 0.3128E+02   max: -.5288E+03   C at   55  2   RLX: 0.001
       a =  9.000      CL =  1.1464
      Cm = -0.0621     CD =  0.01646   =>   CDf =  0.00639    CDp =  0.01007

 Side 1  free  transition at x/c =  0.4635   67
 Side 2  free  transition at x/c =  0.7189   56

  19   rms: 0.2036E+03   max: 0.3422E+04   C at   56  2   RLX: 0.000
       a =  9.000      CL =  1.1452
      Cm = -0.0619     CD =  0.01658   =>   CDf =  0.00634    CDp =  0.01024

 Side 1  free  transition at x/c =  0.4635   67
 Side 2  free  transition at x/c =  0.6684   53

  20   rms: 0.1761E+02   max: -.2760E+03   C at   53  2   RLX: 0.002
       a =  9.000      CL =  1.1450
      Cm = -0.0618     CD =  0.01651   =>   CDf =  0.00645    CDp =  0.01006

 Side 1  free  transition at x/c =  0.4635   67
 Side 2  free  transition at x/c =  0.6886   54

  21   rms: 0.2150E+02   max: -.3392E+03   C at   54  2   RLX: 0.001
       a =  9.000      CL =  1.1450
      Cm = -0.0618     CD =  0.01647   =>   CDf =  0.00641    CDp =  0.01006

 Side 1  free  transition at x/c =  0.4635   67
 Side 2  free  transition at x/c =  0.7096   55

  22   rms: 0.6486E+03   max: 0.1025E+05   C at   55  2   RLX: 0.000
       a =  9.000      CL =  1.1438
      Cm = -0.0616     CD =  0.01658   =>   CDf =  0.00636    CDp =  0.01022

 Side 1  free  transition at x/c =  0.4635   67
 Side 2  free  transition at x/c =  0.6567   53

  23   rms: 0.1089E+02   max: -.1818E+03   C at   53  2   RLX: 0.003
       a =  9.000      CL =  1.1435
      Cm = -0.0614     CD =  0.01653   =>   CDf =  0.00648    CDp =  0.01005

 Side 1  free  transition at x/c =  0.4634   67
 Side 2  free  transition at x/c =  0.6778   54

  24   rms: 0.1573E+02   max: -.2633E+03   C at   54  2   RLX: 0.002
       a =  9.000      CL =  1.1434
      Cm = -0.0613     CD =  0.01648   =>   CDf =  0.00643    CDp =  0.01005

 Side 1  free  transition at x/c =  0.4634   67
 Side 2  free  transition at x/c =  0.6995   55

  25   rms: 0.3966E+02   max: -.6630E+03   C at   55  2   RLX: 0.001
       a =  9.000      CL =  1.1436
      Cm = -0.0614     CD =  0.01644   =>   CDf =  0.00638    CDp =  0.01006
 VISCAL:  Convergence failed
 Calculating wake trajectory ...
 Calculating source influence matrix ...

 Solving BL system ...

 Side 1  free  transition at x/c =  0.4634   67
 Side 2  free  transition at x/c =  0.7215   56

   1   rms: 0.2134E+02   max: 0.3497E+03   C at   56  2   RLX: 0.004
       a = 10.000      CL =  1.1396
      Cm = -0.0605     CD =  0.01655   =>   CDf =  0.00634    CDp =  0.01020

 Side 1  free  transition at x/c =  0.4634   67
 Side 2  free  transition at x/c =  0.6740   54

   2   rms: 0.2842E+02   max: -.4832E+03   C at   54  2   RLX: 0.001
       a = 10.000      CL =  1.1395
      Cm = -0.0604     CD =  0.01648   =>   CDf =  0.00645    CDp =  0.01003

 Side 1  free  transition at x/c =  0.4633   67
 Side 2  free  transition at x/c =  0.6963   55

   3   rms: 0.7602E+02   max: -.1289E+04   C at   55  2   RLX: 0.000
       a = 10.000      CL =  1.1397
      Cm = -0.0604     CD =  0.01644   =>   CDf =  0.00640    CDp =  0.01003

 Side 1  free  transition at x/c =  0.4633   67
 Side 2  free  transition at x/c =  0.7187   56

   4   rms: 0.8890E+02   max: 0.1498E+04   C at   56  2   RLX: 0.001
       a = 10.000      CL =  1.1381
      Cm = -0.0601     CD =  0.01656   =>   CDf =  0.00635    CDp =  0.01021

 Side 1  free  transition at x/c =  0.4633   67
 Side 2  free  transition at x/c =  0.6711   54

   5   rms: 0.2839E+02   max: -.4885E+03   C at   54  2   RLX: 0.001
       a = 10.000      CL =  1.1379
      Cm = -0.0599     CD =  0.01648   =>   CDf =  0.00646    CDp =  0.01002

 Side 1  free  transition at x/c =  0.4633   67
 Side 2  free  transition at x/c =  0.6939   55

   6   rms: 0.7714E+02   max: -.1321E+04   C at   55  2   RLX: 0.000
       a = 10.000      CL =  1.1381
      Cm = -0.0600     CD =  0.01644   =>   CDf =  0.00641    CDp =  0.01003

 Side 1  free  transition at x/c =  0.4633   67
 Side 2  free  transition at x/c =  0.7166   55

   7   rms: 0.1123E+03   max: 0.1727E+04   C at   55  2   RLX: 0.001
       a = 10.000      CL =  1.1365
      Cm = -0.0596     CD =  0.01654   =>   CDf =  0.00636    CDp =  0.01019

 Side 1  free  transition at x/c =  0.4633   67
 Side 2  free  transition at x/c =  0.6645   53

   8   rms: 0.2925E+02   max: -.4731E+03   C at   53  2   RLX: 0.001
       a = 10.000      CL =  1.1364
      Cm = -0.0595     CD =  0.01649   =>   CDf =  0.00648    CDp =  0.01001

 Side 1  free  transition at x/c =  0.4633   67
 Side 2  free  transition at x/c =  0.6854   54

   9   rms: 0.3202E+02   max: -.5204E+03   C at   54  2   RLX: 0.001
       a = 10.000      CL =  1.1363
      Cm = -0.0594     CD =  0.01645   =>   CDf =  0.00643    CDp =  0.01002

 Side 1  free  transition at x/c =  0.4633   67
 Side 2  free  transition at x/c =  0.7069   55

  10   rms: 0.1353E+03   max: 0.2167E+04   C at   55  2   RLX: 0.001
       a = 10.000      CL =  1.1347
      Cm = -0.0591     CD =  0.01655   =>   CDf =  0.00638    CDp =  0.01017

 Side 1  free  transition at x/c =  0.4633   67
 Side 2  free  transition at x/c =  0.6548   53

  11   rms: 0.2080E+02   max: -.3507E+03   C at   53  2   RLX: 0.001
       a = 10.000      CL =  1.1344
      Cm = -0.0590     CD =  0.01650   =>   CDf =  0.00650    CDp =  0.01000

 Side 1  free  transition at x/c =  0.4632   67
 Side 2  free  transition at x/c =  0.6765   54

  12   rms: 0.2998E+02   max: -.5059E+03   C at   54  2   RLX: 0.001
       a = 10.000      CL =  1.1344
      Cm = -0.0589     CD =  0.01646   =>   CDf =  0.00645    CDp =  0.01001

 Side 1  free  transition at x/c =  0.4632   67
 Side 2  free  transition at x/c =  0.6988   55

  13   rms: 0.1049E+03   max: -.1764E+04   C at   55  2   RLX: 0.000
       a = 10.000      CL =  1.1347
      Cm = -0.0589     CD =  0.01642   =>   CDf =  0.00640    CDp =  0.01002

 Side 1  free  transition at x/c =  0.4632   67
 Side 2  free  transition at x/c =  0.7202   56

  14   rms: 0.2059E+02   max: 0.3398E+03   C at   56  2   RLX: 0.004
       a = 10.000      CL =  1.1313
      Cm = -0.0581     CD =  0.01653   =>   CDf =  0.00635    CDp =  0.01018

 Side 1  free  transition at x/c =  0.4631   67
 Side 2  free  transition at x/c =  0.6767   54

  15   rms: 0.3008E+02   max: -.5071E+03   C at   54  2   RLX: 0.001
       a = 10.000      CL =  1.1311
      Cm = -0.0579     CD =  0.01645   =>   CDf =  0.00645    CDp =  0.01000

 Side 1  free  transition at x/c =  0.4631   67
 Side 2  free  transition at x/c =  0.6992   55

  16   rms: 0.1090E+03   max: -.1832E+04   C at   55  2   RLX: 0.000
       a = 10.000      CL =  1.1314
      Cm = -0.0580     CD =  0.01641   =>   CDf =  0.00640    CDp =  0.01001

 Side 1  free  transition at x/c =  0.4631   67
 Side 2  free  transition at x/c =  0.7207   56

  17   rms: 0.1903E+02   max: 0.3135E+03   C at   56  2   RLX: 0.005
       a = 10.000      CL =  1.1278
      Cm = -0.0570     CD =  0.01651   =>   CDf =  0.00635    CDp =  0.01017

 Side 1  free  transition at x/c =  0.4630   67
 Side 2  free  transition at x/c =  0.6776   54

  18   rms: 0.3007E+02   max: -.5055E+03   C at   54  2   RLX: 0.001
       a = 10.000      CL =  1.1276
      Cm = -0.0569     CD =  0.01644   =>   CDf =  0.00645    CDp =  0.00999

 Side 1  free  transition at x/c =  0.4630   67
 Side 2  free  transition at x/c =  0.7000   55

  19   rms: 0.1112E+03   max: 0.1837E+04   C at   55  2   RLX: 0.001
       a = 10.000      CL =  1.1258
      Cm = -0.0565     CD =  0.01653   =>   CDf =  0.00640    CDp =  0.01014

 Side 1  free  transition at x/c =  0.4630   67
 Side 2  free  transition at x/c =  0.6475   53

  20   rms: 0.1824E+02   max: -.3224E+03   C at   53  2   RLX: 0.002
       a = 10.000      CL =  1.1256
      Cm = -0.0563     CD =  0.01649   =>   CDf =  0.00652    CDp =  0.00997

 Side 1  free  transition at x/c =  0.4630   67
 Side 2  free  transition at x/c =  0.6705   54

  21   rms: 0.2895E+02   max: -.5012E+03   C at   54  2   RLX: 0.001
       a = 10.000      CL =  1.1256
      Cm = -0.0563     CD =  0.01645   =>   CDf =  0.00647    CDp =  0.00998

 Side 1  free  transition at x/c =  0.4630   67
 Side 2  free  transition at x/c =  0.6933   55

  22   rms: 0.3724E+02   max: -.6411E+03   C at   55  2   RLX: 0.001
       a = 10.000      CL =  1.1256
      Cm = -0.0562     CD =  0.01641   =>   CDf =  0.00641    CDp =  0.01000

 Side 1  free  transition at x/c =  0.4630   67
 Side 2  free  transition at x/c =  0.7151   55

  23   rms: 0.6114E+02   max: 0.9455E+03   C at   55  2   RLX: 0.002
       a = 10.000      CL =  1.1234
      Cm = -0.0557     CD =  0.01651   =>   CDf =  0.00636    CDp =  0.01015

 Side 1  free  transition at x/c =  0.4630   67
 Side 2  free  transition at x/c =  0.6648   53

  24   rms: 0.2162E+02   max: -.3504E+03   C at   53  2   RLX: 0.001
       a = 10.000      CL =  1.1230
      Cm = -0.0555     CD =  0.01645   =>   CDf =  0.00648    CDp =  0.00997

 Side 1  free  transition at x/c =  0.4629   67
 Side 2  free  transition at x/c =  0.6863   54

  25   rms: 0.3088E+02   max: -.5017E+03   C at   54  2   RLX: 0.001
       a = 10.000      CL =  1.1230
      Cm = -0.0555     CD =  0.01642   =>   CDf =  0.00643    CDp =  0.00999
 VISCAL:  Convergence failed
 Calculating wake trajectory ...
 Calculating source influence matrix ...

 Solving BL system ...

 Side 1  free  transition at x/c =  0.4629   67
 Side 2  free  transition at x/c =  0.7077   55

   1   rms: 0.1154E+03   max: 0.1842E+04   C at   55  2   RLX: 0.001
       a = 11.000      CL =  1.1200
      Cm = -0.0550     CD =  0.01651   =>   CDf =  0.00639    CDp =  0.01013

 Side 1  free  transition at x/c =  0.4629   67
 Side 2  free  transition at x/c =  0.6575   53

   2   rms: 0.2981E+02   max: -.4979E+03   C at   53  2   RLX: 0.001
       a = 11.000      CL =  1.1196
      Cm = -0.0548     CD =  0.01646   =>   CDf =  0.00650    CDp =  0.00996

 Side 1  free  transition at x/c =  0.4629   67
 Side 2  free  transition at x/c =  0.6797   54

   3   rms: 0.3998E+02   max: -.6679E+03   C at   54  2   RLX: 0.001
       a = 11.000      CL =  1.1196
      Cm = -0.0547     CD =  0.01642   =>   CDf =  0.00645    CDp =  0.00997

 Side 1  free  transition at x/c =  0.4628   67
 Side 2  free  transition at x/c =  0.7017   55

   4   rms: 0.2322E+03   max: -.3806E+04   C at   55  2   RLX: 0.000
       a = 11.000      CL =  1.1199
      Cm = -0.0547     CD =  0.01639   =>   CDf =  0.00640    CDp =  0.00999

 Side 1  free  transition at x/c =  0.4628   67
 Side 2  free  transition at x/c =  0.7219   56

   5   rms: 0.2090E+02   max: 0.3406E+03   C at   56  2   RLX: 0.004
       a = 11.000      CL =  1.1152
      Cm = -0.0534     CD =  0.01649   =>   CDf =  0.00635    CDp =  0.01014

 Side 1  free  transition at x/c =  0.4628   67
 Side 2  free  transition at x/c =  0.6826   54

   6   rms: 0.3910E+02   max: -.6454E+03   C at   54  2   RLX: 0.001
       a = 11.000      CL =  1.1148
      Cm = -0.0531     CD =  0.01640   =>   CDf =  0.00645    CDp =  0.00996

 Side 1  free  transition at x/c =  0.4627   67
 Side 2  free  transition at x/c =  0.7044   55

   7   rms: 0.2358E+03   max: -.3819E+04   C at   55  2   RLX: 0.000
       a = 11.000      CL =  1.1151
      Cm = -0.0532     CD =  0.01637   =>   CDf =  0.00640    CDp =  0.00998

 Side 1  free  transition at x/c =  0.4627   67
 Side 2  free  transition at x/c =  0.7244   56

   8   rms: 0.1893E+02   max: 0.3042E+03   C at   56  2   RLX: 0.005
       a = 11.000      CL =  1.1100
      Cm = -0.0517     CD =  0.01647   =>   CDf =  0.00634    CDp =  0.01012

 Side 1  free  transition at x/c =  0.4626   67
 Side 2  free  transition at x/c =  0.6859   54

   9   rms: 0.3880E+02   max: -.6317E+03   C at   54  2   RLX: 0.001
       a = 11.000      CL =  1.1095
      Cm = -0.0514     CD =  0.01638   =>   CDf =  0.00645    CDp =  0.00994

 Side 1  free  transition at x/c =  0.4626   67
 Side 2  free  transition at x/c =  0.7076   55

  10   rms: 0.1270E+03   max: 0.2027E+04   C at   55  2   RLX: 0.001
       a = 11.000      CL =  1.1072
      Cm = -0.0508     CD =  0.01647   =>   CDf =  0.00639    CDp =  0.01008

 Side 1  free  transition at x/c =  0.4626   67
 Side 2  free  transition at x/c =  0.6578   53

  11   rms: 0.2831E+02   max: -.4723E+03   C at   53  2   RLX: 0.001
       a = 11.000      CL =  1.1066
      Cm = -0.0505     CD =  0.01643   =>   CDf =  0.00651    CDp =  0.00991

 Side 1  free  transition at x/c =  0.4626   67
 Side 2  free  transition at x/c =  0.6801   54

  12   rms: 0.3413E+02   max: -.5691E+03   C at   54  2   RLX: 0.001
       a = 11.000      CL =  1.1065
      Cm = -0.0504     CD =  0.01639   =>   CDf =  0.00646    CDp =  0.00993

 Side 1  free  transition at x/c =  0.4625   67
 Side 2  free  transition at x/c =  0.7023   55

  13   rms: 0.1299E+03   max: -.2124E+04   C at   55  2   RLX: 0.000
       a = 11.000      CL =  1.1067
      Cm = -0.0503     CD =  0.01636   =>   CDf =  0.00641    CDp =  0.00995

 Side 1  free  transition at x/c =  0.4625   67
 Side 2  free  transition at x/c =  0.7222   56

  14   rms: 0.1789E+02   max: 0.2905E+03   C at   56  2   RLX: 0.005
       a = 11.000      CL =  1.1013
      Cm = -0.0488     CD =  0.01645   =>   CDf =  0.00636    CDp =  0.01010

 Side 1  free  transition at x/c =  0.4624   67
 Side 2  free  transition at x/c =  0.6845   54

  15   rms: 0.3430E+02   max: -.5616E+03   C at   54  2   RLX: 0.001
       a = 11.000      CL =  1.1005
      Cm = -0.0483     CD =  Got result {'DD': 0.0155, 'Dmin': 0.01589, 'LL': -0.583}
Completed successfully in 2.48 seconds. [{'DD': 0.0155, 'Dmin': 0.01589, 'LL': -0.583}]
0.01637   =>   CDf =  0.00646    CDp =  0.00991

 Side 1  free  transition at x/c =  0.4624   67
 Side 2  free  transition at x/c =  0.7064   55

  16   rms: 0.1199E+03   max: -.1924E+04   C at   55  2   RLX: 0.000
       a = 11.000      CL =  1.1007
      Cm = -0.0483     CD =  0.01634   =>   CDf =  0.00641    CDp =  0.00993

 Side 1  free  transition at x/c =  0.4624   67
 Side 2  free  transition at x/c =  0.7261   56

  17   rms: 0.1606E+02   max: 0.2549E+03   C at   56  2   RLX: 0.006
       a = 11.000      CL =  1.0947
      Cm = -0.0466     CD =  0.01642   =>   CDf =  0.00635    CDp =  0.01007

 Side 1  free  transition at x/c =  0.4623   67
 Side 2  free  transition at x/c =  0.6894   54

  18   rms: 0.3725E+02   max: -.5896E+03   C at   54  2   RLX: 0.001
       a = 11.000      CL =  1.0940
      Cm = -0.0461     CD =  0.01633   =>   CDf =  0.00646    CDp =  0.00988

 Side 1  free  transition at x/c =  0.4622   67
 Side 2  free  transition at x/c =  0.7110   55

  19   rms: 0.1524E+03   max: 0.2395E+04   C at   55  2   RLX: 0.001
       a = 11.000      CL =  1.0916
      Cm = -0.0455     CD =  0.01642   =>   CDf =  0.00640    CDp =  0.01001

 Side 1  free  transition at x/c =  0.4623   67
 Side 2  free  transition at x/c =  0.6618   53

  20   rms: 0.2824E+02   max: -.4635E+03   C at   53  2   RLX: 0.001
       a = 11.000      CL =  1.0908
      Cm = -0.0450     CD =  0.01637   =>   CDf =  0.00652    CDp =  0.00984

 Side 1  free  transition at x/c =  0.4622   67
 Side 2  free  transition at x/c =  0.6838   54

  21   rms: 0.2905E+02   max: -.4770E+03   C at   54  2   RLX: 0.001
       a = 11.000      CL =  1.0905
      Cm = -0.0448     CD =  0.01633   =>   CDf =  0.00647    CDp =  0.00986

 Side 1  free  transition at x/c =  0.4622   67
 Side 2  free  transition at x/c =  0.7058   55

  22   rms: 0.8302E+02   max: -.1334E+04   C at   55  2   RLX: 0.000
       a = 11.000      CL =  1.0905
      Cm = -0.0447     CD =  0.01631   =>   CDf =  0.00642    CDp =  0.00989

 Side 1  free  transition at x/c =  0.4622   67
 Side 2  free  transition at x/c =  0.7253   56

  23   rms: 0.1561E+02   max: 0.2486E+03   C at   56  2   RLX: 0.006
       a = 11.000      CL =  1.0844
      Cm = -0.0430     CD =  0.01639   =>   CDf =  0.00637    CDp =  0.01002

 Side 1  free  transition at x/c =  0.4621   67
 Side 2  free  transition at x/c =  0.6891   54

  24   rms: 0.3277E+02   max: -.5193E+03   C at   54  2   RLX: 0.001
       a = 11.000      CL =  1.0834
      Cm = -0.0423     CD =  0.01629   =>   CDf =  0.00647    CDp =  0.00982

 Side 1  free  transition at x/c =  0.4620   67
 Side 2  free  transition at x/c =  0.7108   55

  25   rms: 0.3429E+02   max: 0.5359E+03   C at   55  2   RLX: 0.003
       a = 11.000      CL =  1.0796
      Cm = -0.0413     CD =  0.01636   =>   CDf =  0.00642    CDp =  0.00994
 VISCAL:  Convergence failed

 Sequence halted since previous  4 points did not converge
 Last-converged  alpha =   7.000    CL =   1.09093

.OPERva   c>  
 XFOIL   c>  
