Job launching after 0.30 seconds in submission.
Running python job.
Changed into dir /home/simonx/Documents/Udacity/Projects/capstone/PESM_NSGA2_CST_XFoil
Importing evaluationFunctionXFoil.py
Running evaluationFunctionXFoil.main()
0
1
2
0.04
resp: 
 ===================================================
  XFOIL Version 6.97
  Copyright (C) 2000   Mark Drela, Harold Youngren

  This software comes with ABSOLUTELY NO WARRANTY,
    subject to the GNU General Public License.

  Caveat computor
 ===================================================

 File  xfoil.def  not found

   QUIT    Exit program

  .OPER    Direct operating point(s)
  .MDES    Complex mapping design routine
  .QDES    Surface speed design routine
  .GDES    Geometry design routine

   SAVE f  Write airfoil to labeled coordinate file
   PSAV f  Write airfoil to plain coordinate file
   ISAV f  Write airfoil to ISES coordinate file
   MSAV f  Write airfoil to MSES coordinate file
   REVE    Reverse written-airfoil node ordering
   DELI i  Change written-airfoil file delimiters

   LOAD f  Read buffer airfoil from coordinate file
   NACA i  Set NACA 4,5-digit airfoil and buffer airfoil
   INTE    Set buffer airfoil by interpolating two airfoils
   NORM    Buffer airfoil normalization toggle
   HALF    Halve the number of points in buffer airfoil
   XYCM rr Change CM reference location, currently  0.25000 0.00000

   BEND    Display structural properties of current airfoil

   PCOP    Set current-airfoil panel nodes directly from buffer airfoil points
   PANE    Set current-airfoil panel nodes ( 160 ) based on curvature
  .PPAR    Show/change paneling

  .PLOP    Plotting options

   WDEF f  Write  current-settings file
   RDEF f  Reread current-settings file
   NAME s  Specify new airfoil name
   NINC    Increment name version number

   Z       Zoom    | (available in all menus)
   U       Unzoom  | 

 XFOIL   c>   ...............................................

  G raphics-enable flag:        T
  S ize of plot object          10.00"
  A spect ratio of plot object   0.5500
  P age dimensions              11.00 x  8.50"
  M argins from page edges       0.00",  0.00"
  F ont size (relative)          0.0150
  W indow/screen size fraction   0.8000
  B lowup input method:        Cursor    
  O rientation of plot:        Landscape 
  C olor PostScript output?     F

      Option, Value   (or <Return>)    c>   ...............................................

  G raphics-enable flag:        F
  S ize of plot object          10.00"
  A spect ratio of plot object   0.5500
  P age dimensions              11.00 x  8.50"
  M argins from page edges       0.00",  0.00"
  F ont size (relative)          0.0150
  W indow/screen size fraction   0.8000
  B lowup input method:        Cursor    
  O rientation of plot:        Landscape 
  C olor PostScript output?     F

      Option, Value   (or <Return>)    c>  
 XFOIL   c>  
 Labeled airfoil file.  Name:  000305                                          

 Number of input coordinate points: 200
 Clockwise ordering
 Max thickness =     0.194987  at x =   0.125
 Max camber    =     0.067651  at x =   0.531

  LE  x,y  =  -0.00000  -0.00007  |   Chord =   0.99988
  TE  x,y  =   0.99988   0.00002  |

 Current airfoil nodes set from buffer airfoil nodes ( 200 )

 XFOIL   c>  
 You are working with the buffer airfoil

.GDES   c>  
  i       x        y      angle
   2   0.9990   0.0001   -0.039
   3   0.9978   0.0003   -0.212
   4   0.9961   0.0006   -0.180
   5   0.9938   0.0009   -0.287
   6   0.9911   0.0013   -0.289
   7   0.9880   0.0018   -0.364
   8   0.9843   0.0024   -0.376
   9   0.9801   0.0031   -0.428
  10   0.9755   0.0040   -0.423
  11   0.9704   0.0049   -0.470
  12   0.9649   0.0060   -0.470
  13   0.9589   0.0072   -0.473
  14   0.9524   0.0086   -0.481
  15   0.9455   0.0101   -0.473
  16   0.9382   0.0118   -0.464
  17   0.9304   0.0137   -0.432
  18   0.9222   0.0157   -0.426
  19   0.9135   0.0179   -0.381
  20   0.9045   0.0203   -0.351
  21   0.8951   0.0228   -0.316
  22   0.8853   0.0255   -0.270
  23   0.8751   0.0283   -0.218
  24   0.8645   0.0313   -0.176
  25   0.8536   0.0345   -0.118
  26   0.8423   0.0377   -0.068
  27   0.8307   0.0411   -0.006
  28   0.8187   0.0446    0.048
  29   0.8065   0.0481    0.108
  30   0.7939   0.0517    0.158
  31   0.7810   0.0554    0.227
  32   0.7679   0.0591    0.269
  33   0.7545   0.0627    0.334
  34   0.7409   0.0664    0.378
  35   0.7270   0.0700    0.432
  36   0.7129   0.0736    0.469
  37   0.6986   0.0771    0.519
  38   0.6841   0.0805    0.547
  39   0.6694   0.0839    0.588
  40   0.6545   0.0870    0.608
  41   0.6395   0.0901    0.634
  42   0.6243   0.0930    0.647
  43   0.6091   0.0958    0.660
  44   0.5937   0.0984    0.663
  45   0.5782   0.1008    0.666
  46   0.5627   0.1030    0.659
  47   0.5471   0.1051    0.645
  48   0.5314   0.1070    0.630
  49   0.5157   0.1087    0.612
  50   0.5000   0.1103    0.589
  51   0.4843   0.1117    0.561
  52   0.4686   0.1130    0.530
  53   0.4529   0.1141    0.500
  54   0.4373   0.1150    0.471
  55   0.4218   0.1158    0.439
  56   0.4063   0.1165    0.408
  57   0.3909   0.1171    0.382
  58   0.3757   0.1176    0.352
  59   0.3605   0.1180    0.334
  60   0.3455   0.1183    0.312
  61   0.3306   0.1185    0.310
  62   0.3159   0.1186    0.298
  63   0.3014   0.1187    0.301
  64   0.2871   0.1187    0.314
  65   0.2730   0.1186    0.333
  66   0.2591   0.1184    0.366
  67   0.2455   0.1181    0.406
  68   0.2321   0.1178    0.453
  69   0.2190   0.1173    0.523
  70   0.2061   0.1168    0.599
  71   0.1935   0.1161    0.682
  72   0.1813   0.1153    0.795
  73   0.1693   0.1143    0.910
  74   0.1577   0.1132    1.043
  75   0.1464   0.1119    1.186
  76   0.1355   0.1104    1.361
  77   0.1249   0.1087    1.528
  78   0.1147   0.1068    1.721
  79   0.1049   0.1047    1.936
  80   0.0955   0.1023    2.142
  81   0.0865   0.0996    2.378
  82   0.0778   0.0967    2.609
  83   0.0696   0.0935    2.842
  84   0.0618   0.0900    3.080
  85   0.0545   0.0862    3.303
  86   0.0476   0.0821    3.520
  87   0.0411   0.0777    3.712
  88   0.0351   0.0731    3.887
  89   0.0296   0.0681    4.014
  90   0.0245   0.0629    4.129
  91   0.0199   0.0574    4.203
  92   0.0157   0.0517    4.260
  93   0.0120   0.0458    4.260
  94   0.0089   0.0396    4.280
  95   0.0062   0.0333    4.250
  96   0.0039   0.0268    4.230
  97   0.0022   0.0202    4.212
  98   0.0010   0.0135    4.183
  99   0.0002   0.0068    4.169
 100   0.0000   0.0000    4.109
 101   0.0002  -0.0070    4.058
 102   0.0010  -0.0139    4.103
 103   0.0022  -0.0208    4.196
 104   0.0039  -0.0275    4.293
 105   0.0062  -0.0341    4.423
 106   0.0089  -0.0404    4.585
 107   0.0120  -0.0465    4.712
 108   0.0157  -0.0523    4.881
 109   0.0199  -0.0577    4.992
 110   0.0245  -0.0628    5.088
 111   0.0296  -0.0675    5.120
 112   0.0351  -0.0717    5.116
 113   0.0411  -0.0755    5.031
 114   0.0476  -0.0789    4.890
 115   0.0545  -0.0818    4.680
 116   0.0618  -0.0841    4.436
 117   0.0696  -0.0860    4.154
 118   0.0778  -0.0873    3.833
 119   0.0865  -0.0881    3.521
 120   0.0955  -0.0884    3.201
 121   0.1049  -0.0882    2.886
 122   0.1147  -0.0875    2.581
 123   0.1249  -0.0862    2.300
 124   0.1355  -0.0845    2.029
 125   0.1464  -0.0824    1.776
 126   0.1577  -0.0798    1.542
 127   0.1693  -0.0768    1.319
 128   0.1813  -0.0734    1.121
 129   0.1935  -0.0697    0.931
 130   0.2061  -0.0657    0.748
 131   0.2190  -0.0614    0.581
 132   0.2321  -0.0568    0.433
 133   0.2455  -0.0520    0.280
 134   0.2591  -0.0471    0.139
 135   0.2730  -0.0421    0.014
 136   0.2871  -0.0369   -0.113
 137   0.3014  -0.0317   -0.234
 138   0.3159  -0.0266   -0.339
 139   0.3306  -0.0214   -0.454
 140   0.3455  -0.0163   -0.544
 141   0.3605  -0.0113   -0.643
 142   0.3757  -0.0065   -0.731
 143   0.3909  -0.0019   -0.814
 144   0.4063   0.0026   -0.882
 145   0.4218   0.0068   -0.957
 146   0.4373   0.0108   -1.014
 147   0.4529   0.0145   -1.065
 148   0.4686   0.0179   -1.109
 149   0.4843   0.0209   -1.146
 150   0.5000   0.0237   -1.172
 151   0.5157   0.0261   -1.187
 152   0.5314   0.0282   -1.192
 153   0.5471   0.0300   -1.198
 154   0.5627   0.0314   -1.180
 155   0.5782   0.0325   -1.161
 156   0.5937   0.0333   -1.135
 157   0.6091   0.0338   -1.094
 158   0.6243   0.0339   -1.054
 159   0.6395   0.0338   -1.003
 160   0.6545   0.0335   -0.939
 161   0.6694   0.0329   -0.883
 162   0.6841   0.0320   -0.815
 163   0.6986   0.0310   -0.739
 164   0.7129   0.0298   -0.672
 165   0.7270   0.0285   -0.590
 166   0.7409   0.0270   -0.515
 167   0.7545   0.0254   -0.439
 168   0.7679   0.0238   -0.353
 169   0.7810   0.0221   -0.284
 170   0.7939   0.0204   -0.196
 171   0.8065   0.0186   -0.131
 172   0.8187   0.0169   -0.051
 173   0.8307   0.0153    0.020
 174   0.8423   0.0136    0.082
 175   0.8536   0.0121    0.147
 176   0.8645   0.0106    0.213
 177   0.8751   0.0092    0.259
 178   0.8853   0.0079    0.312
 179   0.8951   0.0067    0.366
 180   0.9045   0.0056    0.394
 181   0.9135   0.0046    0.431
 182   0.9222   0.0037    0.462
 183   0.9304   0.0029    0.485
 184   0.9382   0.0023    0.483
 185   0.9455   0.0017    0.516
 186   0.9524   0.0013    0.494
 187   0.9589   0.0009    0.509
 188   0.9649   0.0006    0.487
 189   0.9704   0.0004    0.472
 190   0.9755   0.0002    0.454
 191   0.9801   0.0001    0.417
 192   0.9843  -0.0000    0.384
 193   0.9880  -0.0000    0.355
 194   0.9911  -0.0001    0.312
 195   0.9938  -0.0001    0.242
 196   0.9961  -0.0000    0.247
 197   0.9978  -0.0000    0.119
 198   0.9990  -0.0000    0.123
 199   0.9998  -0.0000    0.154

 Maximum panel corner angle =  5.120   at  i,x,y  = 111   0.0296  -0.0675

 Enter corner angle criterion for refinement (deg):   2.560
 Enter type of spline parameter (1=uniform, 2=arclength):   1
 Enter refinement x limits:  -0.10000   1.10000
 Number of points added:           82
 Max thickness =     0.194989  at x =   0.125
 Max camber    =     0.067619  at x =   0.531

 Maximum panel corner angle =  2.142   at  i,x,y  =  80   0.0955   0.1023

.GDES   c>  
 Buffer airfoil is not identical to current airfoil

 XFOIL   c>  
 Blunt trailing edge.  Gap =  0.00025

 Paneling parameters used...
   Number of panel nodes       160
   Panel bunching parameter    1.000
   TE/LE panel density ratio   0.150
   Refined-area/LE panel density ratio    0.200
   Top    side refined area x/c limits  1.000 1.000
   Bottom side refined area x/c limits  1.000 1.000

 XFOIL   c>  
Enter output filename   s>  
 XFOIL   c>  
.OPERi   c>   Current iteration limit:          20

Enter new iteration limit   i>  
Enter new iteration limit   i>  
Enter new iteration limit   i>  
.OPERi   c>  
 M  =    0.0000
 Re =  0.3000E+06

.OPERv   c>  
 Sonic Cp =   -420.65      Sonic Q/Qinf =    22.825


.OPERv   c>  
 Polar  1 newly created for accumulation
 Airfoil archived with polar: 000305                                          

Enter  polar save filename  OR  <return> for no file   s>  
 New polar save file available

Enter  polar dump filename  OR  <return> for no file   s>  
 Polar dump file will NOT be written

 Polar accumulation enabled

.OPERva   c>   Calculating unit vorticity distributions ...
 Calculating wake trajectory ...
 Calculating source influence matrix ...

 Solving BL system ...

 Initializing BL ...
    side            1  ...
 MRCHUE: Inverse mode at  41     Hk =   4.205
 MRCHUE: Inverse mode at  42     Hk =   5.041
 MRCHUE: Inverse mode at  43     Hk =   5.905
 MRCHUE: Inverse mode at  44     Hk =   6.812
 MRCHUE: Inverse mode at  45     Hk =   7.774
 MRCHUE: Inverse mode at  46     Hk =   8.804
 MRCHUE: Inverse mode at  47     Hk =   8.010
 MRCHUE: Inverse mode at  48     Hk =   3.275
 MRCHUE: Inverse mode at  74     Hk =   2.500
 MRCHUE: Inverse mode at  75     Hk =   2.500
 MRCHUE: Inverse mode at  76     Hk =   2.500
 MRCHUE: Inverse mode at  77     Hk =   2.500
 MRCHUE: Inverse mode at  78     Hk =   2.500
 MRCHUE: Inverse mode at  79     Hk =   2.500
 MRCHUE: Convergence failed at  80  side 1    Res =  0.2878E+03
    side            2  ...
 MRCHUE: Inverse mode at  35     Hk =   4.172
 MRCHUE: Inverse mode at  36     Hk =   4.811
 MRCHUE: Inverse mode at  37     Hk =   5.456
 MRCHUE: Inverse mode at  38     Hk =   6.118
 MRCHUE: Inverse mode at  39     Hk =   6.804
 MRCHUE: Inverse mode at  40     Hk =   7.523
 MRCHUE: Inverse mode at  41     Hk =   8.284
 MRCHUE: Inverse mode at  42     Hk =   9.098
 MRCHUE: Inverse mode at  43     Hk =   9.388
 MRCHUE: Inverse mode at  44     Hk =   4.959
 MRCHUE: Inverse mode at  45     Hk =   2.861
 MRCHUE: Inverse mode at  46     Hk =   2.500
 MRCHUE: Inverse mode at  47     Hk =   2.500
 MRCHUE: Inverse mode at  48     Hk =   2.500
 MRCHUE: Inverse mode at  49     Hk =   2.500
 MRCHUE: Inverse mode at  50     Hk =   2.500
 MRCHUE: Inverse mode at  51     Hk =   2.500
 MRCHUE: Inverse mode at  52     Hk =   2.500
 MRCHUE: Inverse mode at  53     Hk =   2.500
 MRCHUE: Inverse mode at  54     Hk =   2.500
 MRCHUE: Inverse mode at  55     Hk =   2.500
 MRCHUE: Inverse mode at  56     Hk =   2.500
 MRCHUE: Inverse mode at  57     Hk =   2.500
 MRCHUE: Inverse mode at  58     Hk =   2.500
 MRCHUE: Inverse mode at  59     Hk =   2.500
 MRCHUE: Inverse mode at  60     Hk =   2.500
 MRCHUE: Inverse mode at  61     Hk =   2.500
 MRCHUE: Inverse mode at  62     Hk =   2.500
 MRCHUE: Inverse mode at  63     Hk =   2.500
 MRCHUE: Inverse mode at  64     Hk =   2.500
 MRCHUE: Inverse mode at  65     Hk =   2.500
 MRCHUE: Inverse mode at  66     Hk =   2.500
 MRCHUE: Convergence failed at  82  side 2    Res =  0.3508E+02
 MRCHUE: Convergence failed at  84  side 2    Res =  0.5265E-01

 MRCHDU: Convergence failed at  80  side 1    Res =  0.2319E+03
 MRCHDU: Convergence failed at  84  side 2    Res =  0.6363E-01
 Side 1  free  transition at x/c =  0.2137   47
 Side 2  free  transition at x/c =  0.1982   43

   1   rms: 0.1006E+01   max: -.3866E+01   D at   53  2   RLX: 0.129
       a =  2.000      CL =  0.7670
      Cm = -0.1449     CD =  0.00560   =>   CDf =  0.00822    CDp = -0.00263

 Side 1  free  transition at x/c =  0.2168   47
 Side 2  free  transition at x/c =  0.2014   44

   2   rms: 0.6241E+00   max: 0.2356E+01   D at   84  2   RLX: 0.267
       a =  2.000      CL =  0.7192
      Cm = -0.1350     CD =  0.00773   =>   CDf =  0.00858    CDp = -0.00085

 Side 1  free  transition at x/c =  0.2236   47
 Side 2  free  transition at x/c =  0.1978   44

   3   rms: 0.7076E+00   max: 0.3163E+01   T at   44  2   RLX: 0.257
       a =  2.000      CL =  0.6775
      Cm = -0.1223     CD =  0.01164   =>   CDf =  0.00839    CDp =  0.00325

 Side 1  free  transition at x/c =  0.2302   47
 Side 2  free  transition at x/c =  0.1859   43

   4   rms: 0.3197E+00   max: -.1304E+01   D at   67  2   RLX: 0.384
       a =  2.000      CL =  0.6875
      Cm = -0.1246     CD =  0.01392   =>   CDf =  0.00783    CDp =  0.00609

 Side 1  free  transition at x/c =  0.2360   47
 Side 2  free  transition at x/c =  0.1850   43

   5   rms: 0.6031E+00   max: 0.2589E+01   D at   52  2   RLX: 0.388
       a =  2.000      CL =  0.6921
      Cm = -0.1196     CD =  0.02012   =>   CDf =  0.00808    CDp =  0.01203

 Side 1  free  transition at x/c =  0.2376   48
 Side 2  free  transition at x/c =  0.1754   43

   6   rms: 0.2213E+00   max: -.9196E+00   D at   72  2   RLX: 0.544
       a =  2.000      CL =  0.6993
      Cm = -0.1244     CD =  0.02039   =>   CDf =  0.00726    CDp =  0.01312

 Side 1  free  transition at x/c =  0.2473   48
 Side 2  free  transition at x/c =  0.1771   43

   7   rms: 0.1234E+00   max: -.6168E+00   D at   70  2   RLX: 0.811
       a =  2.000      CL =  0.7264
      Cm = -0.1287     CD =  0.02060   =>   CDf =  0.00744    CDp =  0.01316

 Side 1  free  transition at x/c =  0.2465   48
 Side 2  free  transition at x/c =  0.1779   43

   8   rms: 0.3006E-01   max: -.2385E+00   D at   66  2
       a =  2.000      CL =  0.7358
      Cm = -0.1294     CD =  0.02133   =>   CDf =  0.00775    CDp =  0.01358

 Side 1  free  transition at x/c =  0.2456   48
 Side 2  free  transition at x/c =  0.1772   43

   9   rms: 0.3033E-02   max: -.4476E-01   D at   66  2
       a =  2.000      CL =  0.7355
      Cm = -0.1293     CD =  0.02139   =>   CDf =  0.00781    CDp =  0.01359

 Side 1  free  transition at x/c =  0.2456   48
 Side 2  free  transition at x/c =  0.1772   43

  10   rms: 0.7356E-04   max: -.1525E-02   D at   66  2
       a =  2.000      CL =  0.7355
      Cm = -0.1293     CD =  0.02140   =>   CDf =  0.00781    CDp =  0.01358

 Point added to stored polar  1
 Point written to save file  000305M0.04.log                                 
 Dump file unspecified or not available
 Calculating wake trajectory ...
 Calculating source influence matrix ...

 Solving BL system ...

 Side 1  free  transition at x/c =  0.2456   48
 Side 2  free  transition at x/c =  0.1772   43

   1   rms: 0.1347E+00   max: -.5426E+00   D at   48  1   RLX: 0.922
       a =  3.000      CL =  0.8231
      Cm = -0.1247     CD =  0.02270   =>   CDf =  0.00767    CDp =  0.01504

 Side 1  free  transition at x/c =  0.2268   48
 Side 2  free  transition at x/c =  0.1831   42

   2   rms: 0.1562E+00   max: 0.8150E+00   T at   42  2
       a =  3.000      CL =  0.8081
      Cm = -0.1167     CD =  0.02664   =>   CDf =  0.00747    CDp =  0.01917

 Side 1  free  transition at x/c =  0.2243   49
 Side 2  free  transition at x/c =  0.1754   41

   3   rms: 0.1070E+00   max: -.4277E+00   D at   43  2
       a =  3.000      CL =  0.8241
      Cm = -0.1214     CD =  0.02476   =>   CDf =  0.00707    CDp =  0.01770

 Side 1  free  transition at x/c =  0.2226   49
 Side 2  free  transition at x/c =  0.1783   41

   4   rms: 0.1694E+00   max: -.7394E+00   T at   41  2   RLX: 0.676
       a =  3.000      CL =  0.8349
      Cm = -0.1256     CD =  0.02227   =>   CDf =  0.00739    CDp =  0.01488

 Side 1  free  transition at x/c =  0.2226   49
 Side 2  free  transition at x/c =  0.1847   41

   5   rms: 0.4473E-01   max: 0.4772E+00   T at   41  2
       a =  3.000      CL =  0.8240
      Cm = -0.1220     CD =  0.02382   =>   CDf =  0.00766    CDp =  0.01616

 Side 1  free  transition at x/c =  0.2228   49
 Side 2  free  transition at x/c =  0.1804   41

   6   rms: 0.4446E+01   max: 0.1939E+02   T at   41  2   RLX: 0.077
       a =  3.000      CL =  0.7727
      Cm = -0.1047     CD =  0.03479   =>   CDf =  0.00742    CDp =  0.02737

 MRCHDU: Convergence failed at  41  side 2    Res =  0.2501E+02
 Side 1  free  transition at x/c =  0.2233   49
 Side 2  free  transition at x/c =  0.1731   40

   7   rms: 0.4100E+00   max: -.2490E+01   T at   40  2   RLX: 0.201
       a =  3.000      CL =  0.7939
      Cm = -0.1152     CD =  0.02979   =>   CDf =  0.00673    CDp =  0.02306

 Side 1  free  transition at x/c =  0.2229   49
 Side 2  free  transition at x/c =  0.1758   41

   8   rms: 0.1516E+00   max: -.6704E+00   D at   71  2   RLX: 0.746
       a =  3.000      CL =  0.8217
      Cm = -0.1217     CD =  0.02604   =>   CDf =  0.00690    CDp =  0.01915

 Side 1  free  transition at x/c =  0.2222   49
 Side 2  free  transition at x/c =  0.1779   41

   9   rms: 0.1700E+00   max: -.6933E+00   T at   41  2   RLX: 0.721
       a =  3.000      CL =  0.8373
      Cm = -0.1262     CD =  0.02245   =>   CDf =  0.00731    CDp =  0.01515

 Side 1  free  transition at x/c =  0.2223   49
 Side 2  free  transition at x/c =  0.1844   41

  10   rms: 0.4500E-01   max: 0.5092E+00   T at   41  2
       a =  3.000      CL =  0.8222
      Cm = -0.1213     CD =  0.02434   =>   CDf =  0.00766    CDp =  0.01668

 Side 1  free  transition at x/c =  0.2228   49
 Side 2  free  transition at x/c =  0.1794   41

  11   rms: 0.3332E+00   max: -.1344E+01   T at   41  2   RLX: 0.372
       a =  3.000      CL =  0.8337
      Cm = -0.1262     CD =  0.02215   =>   CDf =  0.00737    CDp =  0.01478

 Side 1  free  transition at x/c =  0.2226   49
 Side 2  free  transition at x/c =  0.1860   41

  12   rms: 0.1072E+00   max: -.4242E+00   D at   64  2
       a =  3.000      CL =  0.8319
      Cm = -0.1249     CD =  0.02210   =>   CDf =  0.00767    CDp =  0.01443

 Side 1  free  transition at x/c =  0.2227   49
 Side 2  free  transition at x/c =  0.1842   41

  13   rms: 0.8448E-01   max: 0.5322E+00   T at   41  2
       a =  3.000      CL =  0.8203
      Cm = -0.1205     CD =  0.02510   =>   CDf =  0.00774    CDp =  0.01736

 Side 1  free  transition at x/c =  0.2228   49
 Side 2  free  transition at x/c =  0.1781   41

  14   rms: 0.1254E+00   max: -.4870E+00   T at   41  2
       a =  3.000      CL =  0.8344
      Cm = -0.1255     CD =  0.02225   =>   CDf =  0.00734    CDp =  0.01491

 Side 1  free  transition at x/c =  0.2225   49
 Side 2  free  transition at x/c =  0.1843   41

  15   rms: 0.1271E+00   max: 0.8509E+00   T at   41  2
       a =  3.000      CL =  0.8147
      Cm = -0.1188     CD =  0.02579   =>   CDf =  0.00776    CDp =  0.01804

 Side 1  free  transition at x/c =  0.2229   49
 Side 2  free  transition at x/c =  0.1766   41

  16   rms: 0.1232E+00   max: -.4713E+00   D at   43  2
       a =  3.000      CL =  0.8305
      Cm = -0.1240     CD =  0.02343   =>   CDf =  0.00717    CDp =  0.01625

 Side 1  free  transition at x/c =  0.2224   49
 Side 2  free  transition at x/c =  0.1808   41

  17   rms: 0.4203E+00   max: -.1701E+01   T at   41  2   RLX: 0.294
       a =  3.000      CL =  0.8418
      Cm = -0.1278     CD =  0.02141   =>   CDf =  0.00761    CDp =  0.01380

 Side 1  free  transition at x/c =  0.2224   49
 Side 2  free  transition at x/c =  0.1882   42

  18   rms: 0.9621E-02   max: 0.8453E-01   T at   42  2
       a =  3.000      CL =  0.8367
      Cm = -0.1264     CD =  0.02131   =>   CDf =  0.00825    CDp =  0.01306

 Side 1  free  transition at x/c =  0.2227   49
 Side 2  free  transition at x/c =  0.1875   42

  19   rms: 0.2357E-02   max: -.1196E-01   D at   58  2
       a =  3.000      CL =  0.8367
      Cm = -0.1264     CD =  0.02133   =>   CDf =  0.00827    CDp =  0.01306

 Side 1  free  transition at x/c =  0.2227   49
 Side 2  free  transition at x/c =  0.1874   42

  20   rms: 0.2299E-04   max: 0.2624E-03   T at   42  2
       a =  3.000      CL =  0.8366
      Cm = -0.1264     CD =  0.02134   =>   CDf =  0.00828    CDp =  0.01305

 Point added to stored polar  1
 Point written to save file  000305M0.04.log                                 
 Dump file unspecified or not available
 Calculating wake trajectory ...
 Calculating source influence matrix ...

 Solving BL system ...

 Side 1  free  transition at x/c =  0.2227   49
 Side 2  free  transition at x/c =  0.1874   42

   1   rms: 0.1347E+00   max: -.6508E+00   T at   42  2   RLX: 0.768
       a =  4.000      CL =  0.9085
      Cm = -0.1229     CD =  0.02219   =>   CDf =  0.00810    CDp =  0.01408

 MRCHDU: Convergence failed at  50  side 1    Res =  0.1248E+01
 MRCHDU: Convergence failed at  51  side 1    Res =  0.2403E+01
 MRCHDU: Convergence failed at  52  side 1    Res =  0.1687E+01
 MRCHDU: Convergence failed at  53  side 1    Res =  0.1544E+01
 MRCHDU: Convergence failed at  54  side 1    Res =  0.1522E+01
 MRCHDU: Convergence failed at  55  side 1    Res =  0.1461E+01
 MRCHDU: Convergence failed at  56  side 1    Res =  0.1414E+01
 MRCHDU: Convergence failed at  57  side 1    Res =  0.1318E+01
 MRCHDU: Convergence failed at  58  side 1    Res =  0.1522E+01
 MRCHDU: Convergence failed at  59  side 1    Res =  0.1644E+01
 MRCHDU: Convergence failed at  60  side 1    Res =  0.1818E+01
 MRCHDU: Convergence failed at  61  side 1    Res =  0.2096E+01
 MRCHDU: Convergence failed at  62  side 1    Res =  0.2369E+01
 MRCHDU: Convergence failed at  63  side 1    Res =  0.2712E+01
 MRCHDU: Convergence failed at  64  side 1    Res =  0.3176E+01
 MRCHDU: Convergence failed at  65  side 1    Res =  0.3797E+01
 MRCHDU: Convergence failed at  66  side 1    Res =  0.4662E+01
 MRCHDU: Convergence failed at  67  side 1    Res =  0.5908E+01
 MRCHDU: Convergence failed at  68  side 1    Res =  0.7824E+01
 MRCHDU: Convergence failed at  69  side 1    Res =  0.1101E+02
 MRCHDU: Convergence failed at  70  side 1    Res =  0.1758E+02
 MRCHDU: Convergence failed at  71  side 1    Res =  0.5109E+02
 MRCHDU: Convergence failed at  72  side 1    Res =  0.4692E+02
 MRCHDU: Convergence failed at  73  side 1    Res =  0.4322E+02
 MRCHDU: Convergence failed at  74  side 1    Res =  0.3747E+02
 MRCHDU: Convergence failed at  75  side 1    Res =  0.1513E+02
 MRCHDU: Convergence failed at  76  side 1    Res =  0.1364E+02
 MRCHDU: Convergence failed at  77  side 1    Res =  0.8772E+02
 MRCHDU: Convergence failed at  78  side 1    Res =  0.7347E+02
 MRCHDU: Convergence failed at  79  side 1    Res =  0.2475E+02
 MRCHDU: Convergence failed at  80  side 1    Res =  0.2134E+02
 MRCHDU: Convergence failed at  81  side 1    Res =  0.1886E+02
 MRCHDU: Convergence failed at  82  side 1    Res =  0.1850E+03
 Side 1  free  transition at x/c =  0.2109   49
 Side 2  free  transition at x/c =  0.1935   41

   2   rms: 0.6671E+00   max: 0.3855E+01   D at   80  1   RLX: 0.389
       a =  4.000      CL =  1.2724
      Cm = -0.3006     CD =  0.01299   =>   CDf =  0.00395    CDp =  0.00904

 Side 1  free  transition at x/c =  0.2044   48
 Side 2  free  transition at x/c =  0.1921   42

   3   rms: 0.2312E+00   max: -.9004E+00   D at   65  1   RLX: 0.555
       a =  4.000      CL =  1.0205
      Cm = -0.1689     CD =  0.02670   =>   CDf =  0.00765    CDp =  0.01905

 Side 1  free  transition at x/c =  0.2057   49
 Side 2  free  transition at x/c =  0.1965   41

   4   rms: 0.1093E+00   max: -.6269E+00   D at   72  1   RLX: 0.798
       a =  4.000      CL =  0.9389
      Cm = -0.1283     CD =  0.02205   =>   CDf =  0.00839    CDp =  0.01366

 Side 1  free  transition at x/c =  0.2062   49
 Side 2  free  transition at x/c =  0.1971   41

   5   rms: 0.5111E-01   max: -.3676E+00   D at   72  1
       a =  4.000      CL =  0.9357
      Cm = -0.1214     CD =  0.02150   =>   CDf =  0.00837    CDp =  0.01313

 Side 1  free  transition at x/c =  0.2054   49
 Side 2  free  transition at x/c =  0.1970   41

   6   rms: 0.1279E-01   max: 0.9185E-01   D at   82  2
       a =  4.000      CL =  0.9356
      Cm = -0.1225     CD =  0.02225   =>   CDf =  0.00841    CDp =  0.01384

 Side 1  free  transition at x/c =  0.2053   49
 Side 2  free  transition at x/c =  0.1967   41

   7   rms: 0.1062E-02   max: 0.6224E-02   D at   81  1
       a =  4.000      CL =  0.9345
      Cm = -0.1223     CD =  0.02226   =>   CDf =  0.00838    CDp =  0.01388

 Side 1  free  transition at x/c =  0.2054   49
 Side 2  free  transition at x/c =  0.1966   41

   8   rms: 0.5924E-04   max: -.3593E-03   D at   43  2
       a =  4.000      CL =  0.9345
      Cm = -0.1223     CD =  0.02226   =>   CDf =  0.00838    CDp =  0.01388

 Point added to stored polar  1
 Point written to save file  000305M0.04.log                                 
 Dump file unspecified or not available
 Calculating wake trajectory ...
 Calculating source influence matrix ...

 Solving BL system ...

 Side 1  free  transition at x/c =  0.2054   49
 Side 2  free  transition at x/c =  0.1966   41

   1   rms: 0.1687E+00   max: -.9219E+00   T at   41  2   RLX: 0.542
       a =  5.000      CL =  0.9896
      Cm = -0.1209     CD =  0.02233   =>   CDf =  0.00817    CDp =  0.01416

 Side 1  free  transition at x/c =  0.1981   49
 Side 2  free  transition at x/c =  0.2064   41

   2   rms: 0.1110E+00   max: 0.9510E+00   D at   41  2
       a =  5.000      CL =  1.0297
      Cm = -0.1181     CD =  0.02295   =>   CDf =  0.00876    CDp =  0.01419

 Side 1  free  transition at x/c =  0.1916   49
 Side 2  free  transition at x/c =  0.2073   41

   3   rms: 0.2034E-01   max: 0.1322E+00   D at   42  2
       a =  5.000      CL =  1.0293
      Cm = -0.1181     CD =  0.02317   =>   CDf =  0.00854    CDp =  0.01463

 Side 1  free  transition at x/c =  0.1914   49
 Side 2  free  transition at x/c =  0.2066   41

   4   rms: 0.1171E-02   max: 0.9943E-02   D at   42  2
       a =  5.000      CL =  1.0294
      Cm = -0.1181     CD =  0.02317   =>   CDf =  0.00849    CDp =  0.01467

 Side 1  free  transition at x/c =  0.1914   49
 Side 2  free  transition at x/c =  0.2065   41

   5   rms: 0.9309E-05   max: 0.7931E-04   D at   42  2
       a =  5.000      CL =  1.0294
      Cm = -0.1181     CD =  0.02317   =>   CDf =  0.00849    CDp =  0.01468

 Point added to stored polar  1
 Point written to save file  000305M0.04.log                                 
 Dump file unspecified or not available
 Calculating wake trajectory ...
 Calculating source influence matrix ...

 Solving BL system ...

 Side 1  free  transition at x/c =  0.1914   49
 Side 2  free  transition at x/c =  0.2065   41

   1   rms: 0.1270E+00   max: -.6156E+00   T at   41  2   RLX: 0.812
       a =  6.000      CL =  1.1049
      Cm = -0.1143     CD =  0.02400   =>   CDf =  0.00826    CDp =  0.01574

 Side 1  free  transition at x/c =  0.1823   49
 Side 2  free  transition at x/c =  0.2150   41

   2   rms: 0.9565E-01   max: -.4750E+00   T at   41  2
       a =  6.000      CL =  1.1235
      Cm = -0.1143     CD =  0.02378   =>   CDf =  0.00864    CDp =  0.01514

 Side 1  free  transition at x/c =  0.1799   49
 Side 2  free  transition at x/c =  0.2196   41

   3   rms: 0.4955E-01   max: -.2257E+00   D at   48  2
       a =  6.000      CL =  1.1249
      Cm = -0.1142     CD =  0.02424   =>   CDf =  0.00851    CDp =  0.01573

 Side 1  free  transition at x/c =  0.1797   49
 Side 2  free  transition at x/c =  0.2185   41

   4   rms: 0.2781E-02   max: -.1665E-01   D at   52  2
       a =  6.000      CL =  1.1244
      Cm = -0.1141     CD =  0.02432   =>   CDf =  0.00867    CDp =  0.01565

 Side 1  free  transition at x/c =  0.1797   49
 Side 2  free  transition at x/c =  0.2183   41

   5   rms: 0.7395E-04   max: -.3617E-03   D at   52  2
       a =  6.000      CL =  1.1244
      Cm = -0.1141     CD =  0.02432   =>   CDf =  0.00868    CDp =  0.01564

 Point added to stored polar  1
 Point written to save file  000305M0.04.log                                 
 Dump file unspecified or not available
 Calculating wake trajectory ...
 Calculating source influence matrix ...

 Solving BL system ...

 Side 1  free  transition at x/c =  0.1797   49
 Side 2  free  transition at x/c =  0.2183   41

   1   rms: 0.1253E+00   max: -.5946E+00   T at   41  2   RLX: 0.841
       a =  7.000      CL =  1.2015
      Cm = -0.1102     CD =  0.02556   =>   CDf =  0.00814    CDp =  0.01742

 Side 1  free  transition at x/c =  0.1709   51
 Side 2  free  transition at x/c =  0.2262   39

   2   rms: 0.1097E+00   max: -.4801E+00   D at   44  2
       a =  7.000      CL =  1.2201
      Cm = -0.1105     CD =  0.02580   =>   CDf =  0.00855    CDp =  0.01725

 Side 1  free  transition at x/c =  0.1699   51
 Side 2  free  transition at x/c =  0.2340   40

   3   rms: 0.5332E-01   max: 0.4730E+00   D at   40  2
       a =  7.000      CL =  1.2219
      Cm = -0.1105     CD =  0.02599   =>   CDf =  0.00896    CDp =  0.01703

 Side 1  free  transition at x/c =  0.1693   51
 Side 2  free  transition at x/c =  0.2316   40

   4   rms: 0.1361E-02   max: -.1133E-01   D at   40  2
       a =  7.000      CL =  1.2223
      Cm = -0.1106     CD =  0.02600   =>   CDf =  0.00893    CDp =  0.01706

 Side 1  free  transition at x/c =  0.1692   51
 Side 2  free  transition at x/c =  0.2314   40

   5   rms: 0.1578E-03   max: 0.1229E-02   T at   40  2
       a =  7.000      CL =  1.2222
      Cm = -0.1106     CD =  0.02600   =>   CDf =  0.00894    CDp =  0.01705

 Side 1  free  transition at x/c =  0.1692   51
 Side 2  free  transition at x/c =  0.2314   40

   6   rms: 0.1464E-05   max: -.5421E-05   D at   43  2
       a =  7.000      CL =  1.2222
      Cm = -0.1106     CD =  0.02600   =>   CDf =  0.00894    CDp =  0.01705

 Point added to stored polar  1
 Point written to save file  000305M0.04.log                                 
 Dump file unspecified or not available
 Calculating wake trajectory ...
 Calculating source influence matrix ...

 Solving BL system ...

 Side 1  free  transition at x/c =  0.1692   51
 Side 2  free  transition at x/c =  0.2314   40

   1   rms: 0.2210E+00   max: -.1257E+01   T at   40  2   RLX: 0.398
       a =  8.000      CL =  1.2798
      Cm = -0.1114     CD =  0.02707   =>   CDf =  0.00895    CDp =  0.01811

 Side 1  free  transition at x/c =  0.1636   50
 Side 2  free  transition at x/c =  0.2400   40

   2   rms: 0.8737E-01   max: -.3871E+00   D at   50  1
       a =  8.000      CL =  1.3069
      Cm = -0.1049     CD =  0.02730   =>   CDf =  0.00846    CDp =  0.01884

 Side 1  free  transition at x/c =  0.1610   51
 Side 2  free  transition at x/c =  0.2448   39

   3   rms: 0.9571E-02   max: 0.7935E-01   D at   83  1
       a =  8.000      CL =  1.3105
      Cm = -0.1061     CD =  0.02768   =>   CDf =  0.00876    CDp =  0.01892

 Side 1  free  transition at x/c =  0.1609   51
 Side 2  free  transition at x/c =  0.2447   39

   4   rms: 0.4713E-03   max: 0.7017E-02   D at   81  1
       a =  8.000      CL =  1.3105
      Cm = -0.1061     CD =  0.02767   =>   CDf =  0.00877    CDp =  0.01891

 Side 1  free  transition at x/c =  0.1609   51
 Side 2  free  transition at x/c =  0.2448   39

   5   rms: 0.6775E-05   max: 0.7313E-04   D at   81  1
       a =  8.000      CL =  1.3105
      Cm = -0.1061     CD =  0.02767   =>   CDf =  0.00877    CDp =  0.01891

 Point added to stored polar  1
 Point written to save file  000305M0.04.log                                 
 Dump file unspecified or not available
 Calculating wake trajectory ...
 Calculating source influence matrix ...

 Solving BL system ...

 Side 1  free  transition at x/c =  0.1609   51
 Side 2  free  transition at x/c =  0.2448   39

   1   rms: 0.1284E+00   max: -.7188E+00   T at   39  2   RLX: 0.696
       a =  9.000      CL =  1.3728
      Cm = -0.1032     CD =  0.02898   =>   CDf =  0.00847    CDp =  0.02051

 Side 1  free  transition at x/c =  0.1558   51
 Side 2  free  transition at x/c =  0.2572   39

   2   rms: 0.6578E-01   max: 0.6343E+00   D at   39  2
       a =  9.000      CL =  1.3975
      Cm = -0.1018     CD =  0.02981   =>   CDf =  0.00898    CDp =  0.02082

 Side 1  free  transition at x/c =  0.1535   51
 Side 2  free  transition at x/c =  0.2596   39

   3   rms: 0.6861E-02   max: 0.5002E-01   D at   40  2
       a =  9.000      CL =  1.3998
      Cm = -0.1020     CD =  0.02983   =>   CDf =  0.00878    CDp =  0.02105

 Side 1  free  transition at x/c =  0.1533   51
 Side 2  free  transition at x/c =  0.2595   39

   4   rms: 0.1954E-03   max: 0.1943E-02   D at   40  2
       a =  9.000      CL =  1.3998
      Cm = -0.1020     CD =  0.02984   =>   CDf =  0.00878    CDp =  0.02106

 Side 1  free  transition at x/c =  0.1533   51
 Side 2  free  transition at x/c =  0.2595   39

   5   rms: 0.7301E-06   max: -.4482E-05   D at    4  2
       a =  9.000      CL =  1.3998
      Cm = -0.1020     CD =  0.02984   =>   CDf =  0.00878    CDp =  0.02106

 Point added to stored polar  1
 Point written to save file  000305M0.04.log                                 
 Dump file unspecified or not available
 Calculating wake trajectory ...
 Calculating source influence matrix ...

 Solving BL system ...

 Side 1  free  transition at x/c =  0.1533   51
 Side 2  free  transition at x/c =  0.2595   39

   1   rms: 0.1194E+00   max: -.5967E+00   T at   39  2   RLX: 0.838
       a = 10.000      CL =  1.4668
      Cm = -0.0978     CD =  0.03177   =>   CDf =  0.00847    CDp =  0.02330

 Side 1  free  transition at x/c =  0.1473   52
 Side 2  free  transition at x/c =  0.2713   39

   2   rms: 0.9478E-01   max: -.4874E+00   T at   39  2
       a = 10.000      CL =  1.4823
      Cm = -0.0978     CD =  0.03173   =>   CDf =  0.00874    CDp =  0.02299

 Side 1  free  transition at x/c =  0.1467   52
 Side 2  free  transition at x/c =  0.2792   39

   3   rms: 0.2596E-01   max: -.1800E+00   D at   42  2
       a = 10.000      CL =  1.4808
      Cm = -0.0974     CD =  0.03208   =>   CDf =  0.00871    CDp =  0.02338

 Side 1  free  transition at x/c =  0.1467   52
 Side 2  free  transition at x/c =  0.2759   39

   4   rms: 0.4034E-02   max: -.3148E-01   D at   42  2
       a = 10.000      CL =  1.4807
      Cm = -0.0973     CD =  0.03212   =>   CDf =  0.00876    CDp =  0.02336

 Side 1  free  transition at x/c =  0.1467   52
 Side 2  free  transition at x/c =  0.2758   39

   5   rms: 0.2880E-04   max: -.3617E-03   D at   42  2
       a = 10.000      CL =  1.4807
      Cm = -0.0973     CD =  0.03212   =>   CDf =  0.00877    CDp =  0.02335

 Point added to stored polar  1
 Point written to save file  000305M0.04.log                                 
 Dump file unspecified or not available
 Calculating wake trajectory ...
 Calculating source influence matrix ...

 Solving BL system ...

 Side 1  free  transition at x/c =  0.1467   52
 Side 2  free  transition at x/c =  0.2758   39

   1   rms: 0.1240E+00   max: -.6790E+00   T at   39  2   RLX: 0.736
       a = 11.000      CL =  1.5420
      Cm = -0.0941     CD =  0.03408   =>   CDf =  0.00845    CDp =  0.02564

 Side 1  free  transition at x/c =  0.1429   52
 Side 2  free  transition at x/c =  0.2870   38

   2   rms: 0.7029E-01   max: -.3518E+00   D at   38  2
       a = 11.000      CL =  1.5556
      Cm = -0.0924     CD =  0.03527   =>   CDf =  0.00833    CDp =  0.02693

 Side 1  free  transition at x/c =  0.1406   53
 Side 2  free  transition at x/c =  0.2936   38

   3   rms: 0.1337E-01   max: 0.1263E+00   D at   38  2
       a = 11.000      CL =  1.5580
      Cm = -0.0927     CD =  0.03519   =>   CDf =  0.00867    CDp =  0.02652

 Side 1  free  transition at x/c =  0.1405   53
 Side 2  free  transition at x/c =  0.2934   38

   4   rms: 0.5397E-03   max: 0.3381E-02   D at   38  2
       a = 11.000      CL =  1.5580
      Cm = -0.0927     CD =  0.03519   =>   CDf =  0.00866    CDp =  0.02653

 Side 1  free  transition at x/c =  0.1405   53
 Side 2  free  transition at x/c =  0.2933   38

   5   rms: 0.1689E-05   max: 0.1407E-04   D at    2  1
       a = 11.000      CL =  1.5580
      Cm = -0.0927     CD =  0.03519   =>   CDf =  0.00866    CDp =  0.02653

 Point added to stored polar  1
 Point written to save file  000305M0.04.log                                 
 Dump file unspecified or not available
 Calculating wake trajectory ...
 Calculating source influence matrix ...

 Solving BL system ...

 Side 1  free  transition at x/c =  0.1405   53
 Side 2  free  transition at x/c =  0.2933   38

   1   rms: 0.1659E+00   max: -.1036E+01   T at   38  2   RLX: 0.483
       a = 12.000      CL =  1.5925
      Cm = -0.0906     CD =  0.03642   =>   CDf =  0.00868    CDp =  0.02774

 Side 1  free  transition at x/c =  0.1377   53
 Side 2  free  transition at x/c =  0.3070   38

   2   rms: 0.6340E-01   max: -.1894E+00   T at   38  2
       a = 12.000      CL =  1.6280
      Cm = -0.0878     CD =  0.03841   =>   CDf =  0.00818    CDp =  0.03024

 Side 1  free  transition at x/c =  0.1351   54
 Side 2  free  transition at x/c =  0.3129   37

   3   rms: 0.8475E-02   max: -.5886E-01   D at   54  1
       a = 12.000      CL =  1.6280
      Cm = -0.0878     CD =  0.03839   =>   CDf =  0.00857    CDp =  0.02982

 Side 1  free  transition at x/c =  0.1352   54
 Side 2  free  transition at x/c =  0.3128   37

   4   rms: 0.7445E-03   max: -.3367E-02   D at   83  1
       a = 12.000      CL =  1.6286
      Cm = -0.0879     CD =  0.03839   =>   CDf =  0.00858    CDp =  0.02981

 Side 1  free  transition at x/c =  0.1352   54
 Side 2  free  transition at x/c =  0.3128   37

   5   rms: 0.1678E-04   max: 0.2094E-03   D at   38  2
       a = 12.000      CL =  1.6286
      Cm = -0.0879     CD =  0.03839   =>   CDf =  0.00858    CDp =  0.02981

 Point added to stored polar  1
 Point written to save file  000305M0.04.log                                 
 Dump file unspecified or not available
 Calculating wake trajectory ...
 Calculating source influence matrix ...

 Solving BL system ...

 Side 1  free  transition at x/c =  0.1352   54
 Side 2  free  transition at x/c =  0.3128   37

   1   rms: 0.1240E+00   max: -.7892E+00   T at   37  2   RLX: 0.634
       a = 13.000      CL =  1.6788
      Cm = -0.0853     CD =  0.04053   =>   CDf =  0.00824    CDp =  0.03229

 Side 1  free  transition at x/c =  0.1325   54
 Side 2  free  transition at x/c =  0.3306   37

   2   rms: 0.6580E-01   max: 0.8473E+00   D at   37  2
       a = 13.000      CL =  1.6873
      Cm = -0.0829     CD =  0.04279   =>   CDf =  0.00852    CDp =  0.03428

 Side 1  free  transition at x/c =  0.1303   54
 Side 2  free  transition at x/c =  0.3341   37

   3   rms: 0.9229E-02   max: 0.7863E-01   D at   37  2
       a = 13.000      CL =  1.6893
      Cm = -0.0830     CD =  0.04272   =>   CDf =  0.00831    CDp =  0.03441

 Side 1  free  transition at x/c =  0.1302   54
 Side 2  free  transition at x/c =  0.3331   37

   4   rms: 0.2260E-03   max: 0.2847E-02   D at   38  2
       a = 13.000      CL =  1.6893
      Cm = -0.0830     CD =  0.04273   =>   CDf =  0.00831    CDp =  0.03442

 Side 1  free  transition at x/c =  0.1302   54
 Side 2  free  transition at x/c =  0.3331   37

   5   rms: 0.2715E-05   max: 0.1951E-04   D at   81  2
       a = 13.000      CL =  1.6893
      Cm = -0.0830     CD =  0.04273   =>   CDf =  0.00831    CDp =  0.03442

 Point added to stored polar  1
 Point written to save file  000305M0.04.log                                 
 Dump file unspecified or not available
 Calculating wake trajectory ...
 Calculating source influence matrix ...

 Solving BL system ...

 Side 1  free  transition at x/c =  0.1302   54
 Side 2  free  transition at x/c =  0.3331   37

   1   rms: 0.1119E+00   max: -.6611E+00   T at   37  2   RLX: 0.756
       a = 14.000      CL =  1.7260
      Cm = -0.0791     CD =  0.04665   =>   CDf =  0.00797    CDp =  0.03868

 Side 1  free  transition at x/c =  0.1266   55
 Side 2  free  transition at x/c =  0.3525   37

   2   rms: 0.4711E-01   max: 0.6268E+00   D at   37  2
       a = 14.000      CL =  1.7408
      Cm = -0.0783     CD =  0.04757   =>   CDf =  0.00810    CDp =  0.03947

 Side 1  free  transition at x/c =  0.1258   55
 Side 2  free  transition at x/c =  0.3555   37

   3   rms: 0.4024E-02   max: 0.4032E-01   D at   38  2
       a = 14.000      CL =  1.7414
      Cm = -0.0783     CD =  0.04750   =>   CDf =  0.00810    CDp =  0.03940

 Side 1  free  transition at x/c =  0.1258   55
 Side 2  free  transition at x/c =  0.3549   37

   4   rms: 0.1473E-03   max: 0.8842E-03   D at   38  2
       a = 14.000      CL =  1.7415
      Cm = -0.0783     CD =  0.04750   =>   CDf =  0.00810    CDp =  0.03939

 Side 1  free  transition at x/c =  0.1258   55
 Side 2  free  transition at x/c =  0.3549   37

   5   rms: 0.3836E-05   max: 0.2286E-04   D at   38  2
       a = 14.000      CL =  1.7415
      Cm = -0.0783     CD =  0.04750   =>   CDf =  0.00810    CDp =  0.03939

 Point added to stored polar  1
 Point written to save file  000305M0.04.log                                 
 Dump file unspecified or not available
 Calculating wake trajectory ...
 Calculating source influence matrix ...

 Solving BL system ...

 Side 1  free  transition at x/c =  0.1258   55
 Side 2  free  transition at x/c =  0.3549   37

   1   rms: 0.1139E+00   max: -.7288E+00   T at   37  2   RLX: 0.686
       a = 15.000      CL =  1.7825
      Cm = -0.0755     CD =  0.05075   =>   CDf =  0.00776    CDp =  0.04299

 Side 1  free  transition at x/c =  0.1232   55
 Side 2  free  transition at x/c =  0.3755   37

   2   rms: 0.4311E-01   max: 0.5335E+00   D at   37  2
       a = 15.000      CL =  1.7854
      Cm = -0.0738     CD =  0.05353   =>   CDf =  0.00808    CDp =  0.04546

 Side 1  free  transition at x/c =  0.1219   55
 Side 2  free  transition at x/c =  0.3791   37

   3   rms: 0.4690E-02   max: -.2451E-01   D at   56  1
       a = 15.000      CL =  1.7874
      Cm = -0.0740     CD =  0.05342   =>   CDf =  0.00787    CDp =  0.04555

 Side 1  free  transition at x/c =  0.1219   55
 Side 2  free  transition at x/c =  0.3790   37

   4   rms: 0.3296E-03   max: 0.1802E-02   D at   38  2
       a = 15.000      CL =  1.7877
      Cm = -0.0740     CD =  0.05344   =>   CDf =  0.00788    CDp =  0.04556

 Side 1  free  transition at x/c =  0.1219   55
 Side 2  free  transition at x/c =  0.3790   37

   5   rms: 0.6283E-05   max: 0.7001E-04   D at   38  2
       a = 15.000      CL =  1.7877
      Cm = -0.0740     CD =  0.05344   =>   CDf =  0.00788    CDp =  0.04556

 Point added to stored polar  1
 Point written to save file  000305M0.04.log                                 
 Dump file unspecified or not available

.OPERva   c>  
 XFOIL   c>  
0.1
resp: 
 ===================================================
  XFOIL Version 6.97
  Copyright (C) 2000   Mark Drela, Harold Youngren

  This software comes with ABSOLUTELY NO WARRANTY,
    subject to the GNU General Public License.

  Caveat computor
 ===================================================

 File  xfoil.def  not found

   QUIT    Exit program

  .OPER    Direct operating point(s)
  .MDES    Complex mapping design routine
  .QDES    Surface speed design routine
  .GDES    Geometry design routine

   SAVE f  Write airfoil to labeled coordinate file
   PSAV f  Write airfoil to plain coordinate file
   ISAV f  Write airfoil to ISES coordinate file
   MSAV f  Write airfoil to MSES coordinate file
   REVE    Reverse written-airfoil node ordering
   DELI i  Change written-airfoil file delimiters

   LOAD f  Read buffer airfoil from coordinate file
   NACA i  Set NACA 4,5-digit airfoil and buffer airfoil
   INTE    Set buffer airfoil by interpolating two airfoils
   NORM    Buffer airfoil normalization toggle
   HALF    Halve the number of points in buffer airfoil
   XYCM rr Change CM reference location, currently  0.25000 0.00000

   BEND    Display structural properties of current airfoil

   PCOP    Set current-airfoil panel nodes directly from buffer airfoil points
   PANE    Set current-airfoil panel nodes ( 160 ) based on curvature
  .PPAR    Show/change paneling

  .PLOP    Plotting options

   WDEF f  Write  current-settings file
   RDEF f  Reread current-settings file
   NAME s  Specify new airfoil name
   NINC    Increment name version number

   Z       Zoom    | (available in all menus)
   U       Unzoom  | 

 XFOIL   c>   ...............................................

  G raphics-enable flag:        T
  S ize of plot object          10.00"
  A spect ratio of plot object   0.5500
  P age dimensions              11.00 x  8.50"
  M argins from page edges       0.00",  0.00"
  F ont size (relative)          0.0150
  W indow/screen size fraction   0.8000
  B lowup input method:        Cursor    
  O rientation of plot:        Landscape 
  C olor PostScript output?     F

      Option, Value   (or <Return>)    c>   ...............................................

  G raphics-enable flag:        F
  S ize of plot object          10.00"
  A spect ratio of plot object   0.5500
  P age dimensions              11.00 x  8.50"
  M argins from page edges       0.00",  0.00"
  F ont size (relative)          0.0150
  W indow/screen size fraction   0.8000
  B lowup input method:        Cursor    
  O rientation of plot:        Landscape 
  C olor PostScript output?     F

      Option, Value   (or <Return>)    c>  
 XFOIL   c>  
 Labeled airfoil file.  Name:  000305                                          

 Number of input coordinate points: 200
 Clockwise ordering
 Max thickness =     0.194987  at x =   0.125
 Max camber    =     0.067651  at x =   0.531

  LE  x,y  =  -0.00000  -0.00007  |   Chord =   0.99988
  TE  x,y  =   0.99988   0.00002  |

 Current airfoil nodes set from buffer airfoil nodes ( 200 )

 XFOIL   c>  
 You are working with the buffer airfoil

.GDES   c>  
  i       x        y      angle
   2   0.9990   0.0001   -0.039
   3   0.9978   0.0003   -0.212
   4   0.9961   0.0006   -0.180
   5   0.9938   0.0009   -0.287
   6   0.9911   0.0013   -0.289
   7   0.9880   0.0018   -0.364
   8   0.9843   0.0024   -0.376
   9   0.9801   0.0031   -0.428
  10   0.9755   0.0040   -0.423
  11   0.9704   0.0049   -0.470
  12   0.9649   0.0060   -0.470
  13   0.9589   0.0072   -0.473
  14   0.9524   0.0086   -0.481
  15   0.9455   0.0101   -0.473
  16   0.9382   0.0118   -0.464
  17   0.9304   0.0137   -0.432
  18   0.9222   0.0157   -0.426
  19   0.9135   0.0179   -0.381
  20   0.9045   0.0203   -0.351
  21   0.8951   0.0228   -0.316
  22   0.8853   0.0255   -0.270
  23   0.8751   0.0283   -0.218
  24   0.8645   0.0313   -0.176
  25   0.8536   0.0345   -0.118
  26   0.8423   0.0377   -0.068
  27   0.8307   0.0411   -0.006
  28   0.8187   0.0446    0.048
  29   0.8065   0.0481    0.108
  30   0.7939   0.0517    0.158
  31   0.7810   0.0554    0.227
  32   0.7679   0.0591    0.269
  33   0.7545   0.0627    0.334
  34   0.7409   0.0664    0.378
  35   0.7270   0.0700    0.432
  36   0.7129   0.0736    0.469
  37   0.6986   0.0771    0.519
  38   0.6841   0.0805    0.547
  39   0.6694   0.0839    0.588
  40   0.6545   0.0870    0.608
  41   0.6395   0.0901    0.634
  42   0.6243   0.0930    0.647
  43   0.6091   0.0958    0.660
  44   0.5937   0.0984    0.663
  45   0.5782   0.1008    0.666
  46   0.5627   0.1030    0.659
  47   0.5471   0.1051    0.645
  48   0.5314   0.1070    0.630
  49   0.5157   0.1087    0.612
  50   0.5000   0.1103    0.589
  51   0.4843   0.1117    0.561
  52   0.4686   0.1130    0.530
  53   0.4529   0.1141    0.500
  54   0.4373   0.1150    0.471
  55   0.4218   0.1158    0.439
  56   0.4063   0.1165    0.408
  57   0.3909   0.1171    0.382
  58   0.3757   0.1176    0.352
  59   0.3605   0.1180    0.334
  60   0.3455   0.1183    0.312
  61   0.3306   0.1185    0.310
  62   0.3159   0.1186    0.298
  63   0.3014   0.1187    0.301
  64   0.2871   0.1187    0.314
  65   0.2730   0.1186    0.333
  66   0.2591   0.1184    0.366
  67   0.2455   0.1181    0.406
  68   0.2321   0.1178    0.453
  69   0.2190   0.1173    0.523
  70   0.2061   0.1168    0.599
  71   0.1935   0.1161    0.682
  72   0.1813   0.1153    0.795
  73   0.1693   0.1143    0.910
  74   0.1577   0.1132    1.043
  75   0.1464   0.1119    1.186
  76   0.1355   0.1104    1.361
  77   0.1249   0.1087    1.528
  78   0.1147   0.1068    1.721
  79   0.1049   0.1047    1.936
  80   0.0955   0.1023    2.142
  81   0.0865   0.0996    2.378
  82   0.0778   0.0967    2.609
  83   0.0696   0.0935    2.842
  84   0.0618   0.0900    3.080
  85   0.0545   0.0862    3.303
  86   0.0476   0.0821    3.520
  87   0.0411   0.0777    3.712
  88   0.0351   0.0731    3.887
  89   0.0296   0.0681    4.014
  90   0.0245   0.0629    4.129
  91   0.0199   0.0574    4.203
  92   0.0157   0.0517    4.260
  93   0.0120   0.0458    4.260
  94   0.0089   0.0396    4.280
  95   0.0062   0.0333    4.250
  96   0.0039   0.0268    4.230
  97   0.0022   0.0202    4.212
  98   0.0010   0.0135    4.183
  99   0.0002   0.0068    4.169
 100   0.0000   0.0000    4.109
 101   0.0002  -0.0070    4.058
 102   0.0010  -0.0139    4.103
 103   0.0022  -0.0208    4.196
 104   0.0039  -0.0275    4.293
 105   0.0062  -0.0341    4.423
 106   0.0089  -0.0404    4.585
 107   0.0120  -0.0465    4.712
 108   0.0157  -0.0523    4.881
 109   0.0199  -0.0577    4.992
 110   0.0245  -0.0628    5.088
 111   0.0296  -0.0675    5.120
 112   0.0351  -0.0717    5.116
 113   0.0411  -0.0755    5.031
 114   0.0476  -0.0789    4.890
 115   0.0545  -0.0818    4.680
 116   0.0618  -0.0841    4.436
 117   0.0696  -0.0860    4.154
 118   0.0778  -0.0873    3.833
 119   0.0865  -0.0881    3.521
 120   0.0955  -0.0884    3.201
 121   0.1049  -0.0882    2.886
 122   0.1147  -0.0875    2.581
 123   0.1249  -0.0862    2.300
 124   0.1355  -0.0845    2.029
 125   0.1464  -0.0824    1.776
 126   0.1577  -0.0798    1.542
 127   0.1693  -0.0768    1.319
 128   0.1813  -0.0734    1.121
 129   0.1935  -0.0697    0.931
 130   0.2061  -0.0657    0.748
 131   0.2190  -0.0614    0.581
 132   0.2321  -0.0568    0.433
 133   0.2455  -0.0520    0.280
 134   0.2591  -0.0471    0.139
 135   0.2730  -0.0421    0.014
 136   0.2871  -0.0369   -0.113
 137   0.3014  -0.0317   -0.234
 138   0.3159  -0.0266   -0.339
 139   0.3306  -0.0214   -0.454
 140   0.3455  -0.0163   -0.544
 141   0.3605  -0.0113   -0.643
 142   0.3757  -0.0065   -0.731
 143   0.3909  -0.0019   -0.814
 144   0.4063   0.0026   -0.882
 145   0.4218   0.0068   -0.957
 146   0.4373   0.0108   -1.014
 147   0.4529   0.0145   -1.065
 148   0.4686   0.0179   -1.109
 149   0.4843   0.0209   -1.146
 150   0.5000   0.0237   -1.172
 151   0.5157   0.0261   -1.187
 152   0.5314   0.0282   -1.192
 153   0.5471   0.0300   -1.198
 154   0.5627   0.0314   -1.180
 155   0.5782   0.0325   -1.161
 156   0.5937   0.0333   -1.135
 157   0.6091   0.0338   -1.094
 158   0.6243   0.0339   -1.054
 159   0.6395   0.0338   -1.003
 160   0.6545   0.0335   -0.939
 161   0.6694   0.0329   -0.883
 162   0.6841   0.0320   -0.815
 163   0.6986   0.0310   -0.739
 164   0.7129   0.0298   -0.672
 165   0.7270   0.0285   -0.590
 166   0.7409   0.0270   -0.515
 167   0.7545   0.0254   -0.439
 168   0.7679   0.0238   -0.353
 169   0.7810   0.0221   -0.284
 170   0.7939   0.0204   -0.196
 171   0.8065   0.0186   -0.131
 172   0.8187   0.0169   -0.051
 173   0.8307   0.0153    0.020
 174   0.8423   0.0136    0.082
 175   0.8536   0.0121    0.147
 176   0.8645   0.0106    0.213
 177   0.8751   0.0092    0.259
 178   0.8853   0.0079    0.312
 179   0.8951   0.0067    0.366
 180   0.9045   0.0056    0.394
 181   0.9135   0.0046    0.431
 182   0.9222   0.0037    0.462
 183   0.9304   0.0029    0.485
 184   0.9382   0.0023    0.483
 185   0.9455   0.0017    0.516
 186   0.9524   0.0013    0.494
 187   0.9589   0.0009    0.509
 188   0.9649   0.0006    0.487
 189   0.9704   0.0004    0.472
 190   0.9755   0.0002    0.454
 191   0.9801   0.0001    0.417
 192   0.9843  -0.0000    0.384
 193   0.9880  -0.0000    0.355
 194   0.9911  -0.0001    0.312
 195   0.9938  -0.0001    0.242
 196   0.9961  -0.0000    0.247
 197   0.9978  -0.0000    0.119
 198   0.9990  -0.0000    0.123
 199   0.9998  -0.0000    0.154

 Maximum panel corner angle =  5.120   at  i,x,y  = 111   0.0296  -0.0675

 Enter corner angle criterion for refinement (deg):   2.560
 Enter type of spline parameter (1=uniform, 2=arclength):   1
 Enter refinement x limits:  -0.10000   1.10000
 Number of points added:           82
 Max thickness =     0.194989  at x =   0.125
 Max camber    =     0.067619  at x =   0.531

 Maximum panel corner angle =  2.142   at  i,x,y  =  80   0.0955   0.1023

.GDES   c>  
 Buffer airfoil is not identical to current airfoil

 XFOIL   c>  
 Blunt trailing edge.  Gap =  0.00025

 Paneling parameters used...
   Number of panel nodes       160
   Panel bunching parameter    1.000
   TE/LE panel density ratio   0.150
   Refined-area/LE panel density ratio    0.200
   Top    side refined area x/c limits  1.000 1.000
   Bottom side refined area x/c limits  1.000 1.000

 XFOIL   c>  
.OPERi   c>   Current iteration limit:          20

Enter new iteration limit   i>  
Enter new iteration limit   i>  
Enter new iteration limit   i>  
.OPERi   c>  
 M  =    0.0000
 Re =  0.3000E+06

.OPERv   c>  
 Sonic Cp =    -66.86      Sonic Q/Qinf =     9.138


.OPERv   c>  
 Polar  1 newly created for accumulation
 Airfoil archived with polar: 000305                                          

Enter  polar save filename  OR  <return> for no file   s>  
 New polar save file available

Enter  polar dump filename  OR  <return> for no file   s>  
 Polar dump file will NOT be written

 Polar accumulation enabled

.OPERva   c>   Calculating unit vorticity distributions ...
 Calculating wake trajectory ...
 Calculating source influence matrix ...

 Solving BL system ...

 Initializing BL ...
    side            1  ...
 MRCHUE: Inverse mode at  41     Hk =   4.246
 MRCHUE: Inverse mode at  42     Hk =   5.081
 MRCHUE: Inverse mode at  43     Hk =   5.945
 MRCHUE: Inverse mode at  44     Hk =   6.853
 MRCHUE: Inverse mode at  45     Hk =   7.816
 MRCHUE: Inverse mode at  46     Hk =   8.846
 MRCHUE: Inverse mode at  47     Hk =   7.774
 MRCHUE: Inverse mode at  48     Hk =   3.174
 MRCHUE: Inverse mode at  74     Hk =   2.500
 MRCHUE: Inverse mode at  75     Hk =   2.500
 MRCHUE: Inverse mode at  76     Hk =   2.500
 MRCHUE: Inverse mode at  77     Hk =   2.500
 MRCHUE: Inverse mode at  78     Hk =   2.500
 MRCHUE: Inverse mode at  79     Hk =   2.500
 MRCHUE: Convergence failed at  80  side 1    Res =  0.1483E+03
    side            2  ...
 MRCHUE: Inverse mode at  35     Hk =   4.228
 MRCHUE: Inverse mode at  36     Hk =   4.866
 MRCHUE: Inverse mode at  37     Hk =   5.512
 MRCHUE: Inverse mode at  38     Hk =   6.175
 MRCHUE: Inverse mode at  39     Hk =   6.862
 MRCHUE: Inverse mode at  40     Hk =   7.582
 MRCHUE: Inverse mode at  41     Hk =   8.344
 MRCHUE: Inverse mode at  42     Hk =   9.160
 MRCHUE: Inverse mode at  43     Hk =   9.132
 MRCHUE: Inverse mode at  44     Hk =   4.888
 MRCHUE: Inverse mode at  45     Hk =   2.768
 MRCHUE: Inverse mode at  46     Hk =   2.500
 MRCHUE: Inverse mode at  47     Hk =   2.500
 MRCHUE: Inverse mode at  48     Hk =   2.500
 MRCHUE: Inverse mode at  49     Hk =   2.500
 MRCHUE: Inverse mode at  50     Hk =   2.500
 MRCHUE: Inverse mode at  51     Hk =   2.500
 MRCHUE: Inverse mode at  52     Hk =   2.500
 MRCHUE: Inverse mode at  53     Hk =   2.500
 MRCHUE: Inverse mode at  54     Hk =   2.500
 MRCHUE: Inverse mode at  55     Hk =   2.500
 MRCHUE: Inverse mode at  56     Hk =   2.500
 MRCHUE: Inverse mode at  57     Hk =   2.500
 MRCHUE: Inverse mode at  58     Hk =   2.500
 MRCHUE: Inverse mode at  59     Hk =   2.500
 MRCHUE: Inverse mode at  60     Hk =   2.500
 MRCHUE: Inverse mode at  61     Hk =   2.500
 MRCHUE: Inverse mode at  62     Hk =   2.500
 MRCHUE: Inverse mode at  63     Hk =   2.500
 MRCHUE: Inverse mode at  64     Hk =   2.500
 MRCHUE: Inverse mode at  65     Hk =   2.500
 MRCHUE: Inverse mode at  66     Hk =   2.500
 MRCHUE: Convergence failed at  82  side 2    Res =  0.2115E+02
 MRCHUE: Convergence failed at  84  side 2    Res =  0.5372E-01

 MRCHDU: Convergence failed at  80  side 1    Res =  0.1326E+03
 MRCHDU: Convergence failed at  84  side 2    Res =  0.6620E-01
 Side 1  free  transition at x/c =  0.2130   47
 Side 2  free  transition at x/c =  0.1976   43

   1   rms: 0.1193E+01   max: -.4770E+01   D at   53  2   RLX: 0.105
       a =  2.000      CL =  0.7778
      Cm = -0.1472     CD =  0.00528   =>   CDf =  0.00820    CDp = -0.00291

 MRCHDU: Convergence failed at  84  side 2    Res =  0.2092E-01
 Side 1  free  transition at x/c =  0.2157   47
 Side 2  free  transition at x/c =  0.2018   44

   2   rms: 0.6306E+00   max: 0.2526E+01   D at   84  2   RLX: 0.265
       a =  2.000      CL =  0.7281
      Cm = -0.1369     CD =  0.00734   =>   CDf =  0.00854    CDp = -0.00121

 Side 1  free  transition at x/c =  0.2219   47
 Side 2  free  transition at x/c =  0.1978   44

   3   rms: 0.7133E+00   max: 0.3155E+01   T at   44  2   RLX: 0.257
       a =  2.000      CL =  0.6848
      Cm = -0.1238     CD =  0.01140   =>   CDf =  0.00841    CDp =  0.00298

 Side 1  free  transition at x/c =  0.2290   47
 Side 2  free  transition at x/c =  0.1858   43

   4   rms: 0.3866E+00   max: -.1612E+01   D at   66  2   RLX: 0.310
       a =  2.000      CL =  0.6916
      Cm = -0.1258     CD =  0.01305   =>   CDf =  0.00788    CDp =  0.00517

 Side 1  free  transition at x/c =  0.2340   47
 Side 2  free  transition at x/c =  0.1860   43

   5   rms: 0.4497E+00   max: 0.2214E+01   T at   43  2   RLX: 0.347
       a =  2.000      CL =  0.6916
      Cm = -0.1216     CD =  0.01760   =>   CDf =  0.00816    CDp =  0.00944

 Side 1  free  transition at x/c =  0.2365   47
 Side 2  free  transition at x/c =  0.1783   43

   6   rms: 0.4806E+00   max: -.1825E+01   D at   72  2   RLX: 0.274
       a =  2.000      CL =  0.6834
      Cm = -0.1240     CD =  0.01739   =>   CDf =  0.00744    CDp =  0.00995

 Side 1  free  transition at x/c =  0.2388   48
 Side 2  free  transition at x/c =  0.1824   43

   7   rms: 0.2456E+00   max: 0.1276E+01   T at   43  2
       a =  2.000      CL =  0.7262
      Cm = -0.1218     CD =  0.02645   =>   CDf =  0.00776    CDp =  0.01869

 Side 1  free  transition at x/c =  0.2452   48
 Side 2  free  transition at x/c =  0.1725   42

   8   rms: 0.8433E-01   max: -.3710E+00   D at   74  2
       a =  2.000      CL =  0.7309
      Cm = -0.1255     CD =  0.02478   =>   CDf =  0.00695    CDp =  0.01784

 Side 1  free  transition at x/c =  0.2433   48
 Side 2  free  transition at x/c =  0.1712   42

   9   rms: 0.1020E-01   max: 0.7176E-01   D at   68  2
       a =  2.000      CL =  0.7243
      Cm = -0.1235     CD =  0.02529   =>   CDf =  0.00721    CDp =  0.01808

 Side 1  free  transition at x/c =  0.2438   48
 Side 2  free  transition at x/c =  0.1706   42

  10   rms: 0.2821E-03   max: -.2877E-02   D at   68  2
       a =  2.000      CL =  0.7243
      Cm = -0.1235     CD =  0.02528   =>   CDf =  0.00718    CDp =  0.01810

 Side 1  free  transition at x/c =  0.2438   48
 Side 2  free  transition at x/c =  0.1706   42

  11   rms: 0.2747E-05   max: -.1296E-04   D at   68  2
       a =  2.000      CL =  0.7243
      Cm = -0.1235     CD =  0.02528   =>   CDf =  0.00718    CDp =  0.01810

 Point added to stored polar  1
 Point written to save file  000305M0.1.log                                  
 Dump file unspecified or not available
 Calculating wake trajectory ...
 Calculating source influence matrix ...

 Solving BL system ...

 Side 1  free  transition at x/c =  0.2438   48
 Side 2  free  transition at x/c =  0.1706   42

   1   rms: 0.1791E+00   max: -.5713E+00   D at   48  1   RLX: 0.875
       a =  3.000      CL =  0.7918
      Cm = -0.1140     CD =  0.02958   =>   CDf =  0.00704    CDp =  0.02254

 Side 1  free  transition at x/c =  0.2264   48
 Side 2  free  transition at x/c =  0.1717   41

   2   rms: 0.7123E-01   max: -.4551E+00   D at   49  1
       a =  3.000      CL =  0.7903
      Cm = -0.1095     CD =  0.03067   =>   CDf =  0.00690    CDp =  0.02377

 Side 1  free  transition at x/c =  0.2233   49
 Side 2  free  transition at x/c =  0.1696   40

   3   rms: 0.2792E+00   max: -.1435E+01   T at   40  2   RLX: 0.349
       a =  3.000      CL =  0.8172
      Cm = -0.1177     CD =  0.02690   =>   CDf =  0.00689    CDp =  0.02000

 Side 1  free  transition at x/c =  0.2222   49
 Side 2  free  transition at x/c =  0.1762   41

   4   rms: 0.9552E-01   max: -.4911E+00   T at   41  2
       a =  3.000      CL =  0.8305
      Cm = -0.1234     CD =  0.02350   =>   CDf =  0.00732    CDp =  0.01619

 Side 1  free  transition at x/c =  0.2212   49
 Side 2  free  transition at x/c =  0.1819   41

   5   rms: 0.1286E+00   max: 0.7116E+00   T at   41  2
       a =  3.000      CL =  0.8119
      Cm = -0.1168     CD =  0.02741   =>   CDf =  0.00759    CDp =  0.01982

 Side 1  free  transition at x/c =  0.2215   49
 Side 2  free  transition at x/c =  0.1748   41

   6   rms: 0.1031E+00   max: -.3950E+00   T at   41  2
       a =  3.000      CL =  0.8220
      Cm = -0.1204     CD =  0.02521   =>   CDf =  0.00710    CDp =  0.01810

 Side 1  free  transition at x/c =  0.2213   49
 Side 2  free  transition at x/c =  0.1771   41

   7   rms: 0.1167E+00   max: -.5132E+00   T at   41  2   RLX: 0.974
       a =  3.000      CL =  0.8331
      Cm = -0.1246     CD =  0.02276   =>   CDf =  0.00733    CDp =  0.01543

 Side 1  free  transition at x/c =  0.2212   49
 Side 2  free  transition at x/c =  0.1828   41

   8   rms: 0.5193E-01   max: 0.4796E+00   T at   41  2
       a =  3.000      CL =  0.8199
      Cm = -0.1198     CD =  0.02546   =>   CDf =  0.00759    CDp =  0.01788

 Side 1  free  transition at x/c =  0.2214   49
 Side 2  free  transition at x/c =  0.1773   41

   9   rms: 0.1244E+00   max: -.4990E+00   T at   41  2
       a =  3.000      CL =  0.8347
      Cm = -0.1251     CD =  0.02251   =>   CDf =  0.00732    CDp =  0.01519

 Side 1  free  transition at x/c =  0.2211   49
 Side 2  free  transition at x/c =  0.1832   41

  10   rms: 0.5703E-01   max: 0.5058E+00   T at   41  2
       a =  3.000      CL =  0.8202
      Cm = -0.1200     CD =  0.02534   =>   CDf =  0.00763    CDp =  0.01771

 Side 1  free  transition at x/c =  0.2214   49
 Side 2  free  transition at x/c =  0.1775   41

  11   rms: 0.1260E+00   max: -.4854E+00   T at   41  2
       a =  3.000      CL =  0.8353
      Cm = -0.1253     CD =  0.02244   =>   CDf =  0.00732    CDp =  0.01512

 Side 1  free  transition at x/c =  0.2211   49
 Side 2  free  transition at x/c =  0.1834   41

  12   rms: 0.7040E-01   max: 0.5542E+00   T at   41  2
       a =  3.000      CL =  0.8196
      Cm = -0.1198     CD =  0.02545   =>   CDf =  0.00767    CDp =  0.01778

 Side 1  free  transition at x/c =  0.2214   49
 Side 2  free  transition at x/c =  0.1773   41

  13   rms: 0.1224E+00   max: -.4597E+00   T at   41  2
       a =  3.000      CL =  0.8345
      Cm = -0.1250     CD =  0.02268   =>   CDf =  0.00730    CDp =  0.01538

 Side 1  free  transition at x/c =  0.2211   49
 Side 2  free  transition at x/c =  0.1827   41

  14   rms: 0.1310E+00   max: 0.7434E+00   T at   41  2
       a =  3.000      CL =  0.8128
      Cm = -0.1173     CD =  0.02699   =>   CDf =  0.00766    CDp =  0.01933

 Side 1  free  transition at x/c =  0.2215   49
 Side 2  free  transition at x/c =  0.1753   41

  15   rms: 0.1027E+00   max: -.4050E+00   D at   43  2
       a =  3.000      CL =  0.8248
      Cm = -0.1214     CD =  0.02475   =>   CDf =  0.00714    CDp =  0.01761

 Side 1  free  transition at x/c =  0.2212   49
 Side 2  free  transition at x/c =  0.1781   41

  16   rms: 0.1177E+00   max: -.5077E+00   T at   41  2   RLX: 0.985
       a =  3.000      CL =  0.8357
      Cm = -0.1255     CD =  0.02227   =>   CDf =  0.00742    CDp =  0.01485

 Side 1  free  transition at x/c =  0.2211   49
 Side 2  free  transition at x/c =  0.1844   41

  17   rms: 0.4508E-01   max: 0.4977E+00   T at   41  2
       a =  3.000      CL =  0.8242
      Cm = -0.1216     CD =  0.02429   =>   CDf =  0.00772    CDp =  0.01657

 Side 1  free  transition at x/c =  0.2214   49
 Side 2  free  transition at x/c =  0.1795   41

  18   rms: 0.2673E+00   max: -.1023E+01   T at   41  2   RLX: 0.489
       a =  3.000      CL =  0.8376
      Cm = -0.1269     CD =  0.02191   =>   CDf =  0.00741    CDp =  0.01450

 Side 1  free  transition at x/c =  0.2211   49
 Side 2  free  transition at x/c =  0.1861   41

  19   rms: 0.1017E+00   max: -.3927E+00   D at   63  2
       a =  3.000      CL =  0.8343
      Cm = -0.1252     CD =  0.02209   =>   CDf =  0.00776    CDp =  0.01433

 Side 1  free  transition at x/c =  0.2213   49
 Side 2  free  transition at x/c =  0.1844   41

  20   rms: 0.1157E+00   max: 0.6278E+00   T at   41  2
       a =  3.000      CL =  0.8212
      Cm = -0.1204     CD =  0.02539   =>   CDf =  0.00784    CDp =  0.01755

 Side 1  free  transition at x/c =  0.2214   49
 Side 2  free  transition at x/c =  0.1775   41

  21   rms: 0.9961E-01   max: -.3773E+00   D at   43  2
       a =  3.000      CL =  0.8318
      Cm = -0.1239     CD =  0.02335   =>   CDf =  0.00732    CDp =  0.01603

 Side 1  free  transition at x/c =  0.2211   49
 Side 2  free  transition at x/c =  0.1816   41

  22   rms: 0.3863E+00   max: -.1550E+01   D at   48  2   RLX: 0.323
       a =  3.000      CL =  0.8433
      Cm = -0.1279     CD =  0.02115   =>   CDf =  0.00772    CDp =  0.01342

 Side 1  free  transition at x/c =  0.2210   49
 Side 2  free  transition at x/c =  0.1892   42

  23   rms: 0.4152E-01   max: 0.2855E+00   D at   42  2
       a =  3.000      CL =  0.8378
      Cm = -0.1264     CD =  0.02158   =>   CDf =  0.00834    CDp =  0.01324

 Side 1  free  transition at x/c =  0.2212   49
 Side 2  free  transition at x/c =  0.1870   42

  24   rms: 0.1303E-01   max: -.5363E-01   D at   55  2
       a =  3.000      CL =  0.8382
      Cm = -0.1264     CD =  0.02156   =>   CDf =  0.00824    CDp =  0.01333

 Side 1  free  transition at x/c =  0.2212   49
 Side 2  free  transition at x/c =  0.1869   42

  25   rms: 0.4452E-03   max: 0.3328E-02   T at   42  2
       a =  3.000      CL =  0.8381
      Cm = -0.1264     CD =  0.02159   =>   CDf =  0.00829    CDp =  0.01330
 VISCAL:  Convergence failed
 Calculating wake trajectory ...
 Calculating source influence matrix ...

 Solving BL system ...

 Side 1  free  transition at x/c =  0.2212   49
 Side 2  free  transition at x/c =  0.1869   42

   1   rms: 0.1409E+00   max: -.7615E+00   T at   42  2   RLX: 0.657
       a =  4.000      CL =  0.8991
      Cm = -0.1235     CD =  0.02210   =>   CDf =  0.00829    CDp =  0.01381

 MRCHDU: Convergence failed at  49  side 1    Res =  0.1311E+01
 MRCHDU: Convergence failed at  50  side 1    Res =  0.1710E+01
 MRCHDU: Convergence failed at  51  side 1    Res =  0.1654E+01
 MRCHDU: Convergence failed at  52  side 1    Res =  0.1621E+01
 MRCHDU: Convergence failed at  53  side 1    Res =  0.1636E+01
 MRCHDU: Convergence failed at  54  side 1    Res =  0.1572E+01
 MRCHDU: Convergence failed at  55  side 1    Res =  0.1513E+01
 MRCHDU: Convergence failed at  56  side 1    Res =  0.1409E+01
 MRCHDU: Convergence failed at  57  side 1    Res =  0.1354E+01
 MRCHDU: Convergence failed at  58  side 1    Res =  0.1744E+01
 MRCHDU: Convergence failed at  59  side 1    Res =  0.1910E+01
 MRCHDU: Convergence failed at  60  side 1    Res =  0.2137E+01
 MRCHDU: Convergence failed at  61  side 1    Res =  0.2478E+01
 MRCHDU: Convergence failed at  62  side 1    Res =  0.2838E+01
 MRCHDU: Convergence failed at  63  side 1    Res =  0.3323E+01
 MRCHDU: Convergence failed at  64  side 1    Res =  0.3995E+01
 MRCHDU: Convergence failed at  65  side 1    Res =  0.4930E+01
 MRCHDU: Convergence failed at  66  side 1    Res =  0.6289E+01
 MRCHDU: Convergence failed at  67  side 1    Res =  0.8372E+01
 MRCHDU: Convergence failed at  68  side 1    Res =  0.1183E+02
 MRCHDU: Convergence failed at  69  side 1    Res =  0.1913E+02
 MRCHDU: Convergence failed at  70  side 1    Res =  0.5979E+02
 MRCHDU: Convergence failed at  71  side 1    Res =  0.3531E+02
 MRCHDU: Convergence failed at  72  side 1    Res =  0.2764E+02
 MRCHDU: Convergence failed at  73  side 1    Res =  0.6483E+02
 MRCHDU: Convergence failed at  74  side 1    Res =  0.1506E+02
 MRCHDU: Convergence failed at  75  side 1    Res =  0.1338E+02
 MRCHDU: Convergence failed at  76  side 1    Res =  0.1212E+03
 MRCHDU: Convergence failed at  77  side 1    Res =  0.7267E+02
 MRCHDU: Convergence failed at  78  side 1    Res =  0.2525E+02
 MRCHDU: Convergence failed at  79  side 1    Res =  0.2175E+02
 MRCHDU: Convergence failed at  80  side 1    Res =  0.1923E+02
 MRCHDU: Convergence failed at  81  side 1    Res =  0.1905E+03
 Side 1  free  transition at x/c =  0.2107   48
 Side 2  free  transition at x/c =  0.1929   42

   2   rms: 0.6811E+00   max: 0.3956E+01   D at   79  1   RLX: 0.379
       a =  4.000      CL =  1.2672
      Cm = -0.3030     CD =  0.01308   =>   CDf =  0.00381    CDp =  0.00927

 Side 1  free  transition at x/c =  0.2037   48
 Side 2  free  transition at x/c =  0.1914   42

   3   rms: 0.2200E+00   max: -.8692E+00   D at   65  1   RLX: 0.575
       a =  4.000      CL =  1.0094
      Cm = -0.1678     CD =  0.02730   =>   CDf =  0.00766    CDp =  0.01964

 Side 1  free  transition at x/c =  0.2051   49
 Side 2  free  transition at x/c =  0.1953   41

   4   rms: 0.1096E+00   max: -.6217E+00   D at   72  1   RLX: 0.804
       a =  4.000      CL =  0.9382
      Cm = -0.1279     CD =  0.02240   =>   CDf =  0.00833    CDp =  0.01407

 Side 1  free  transition at x/c =  0.2051   49
 Side 2  free  transition at x/c =  0.1963   41

   5   rms: 0.4966E-01   max: -.3518E+00   D at   72  1
       a =  4.000      CL =  0.9354
      Cm = -0.1210     CD =  0.02180   =>   CDf =  0.00831    CDp =  0.01348

 Side 1  free  transition at x/c =  0.2043   49
 Side 2  free  transition at x/c =  0.1961   41

   6   rms: 0.1128E-01   max: 0.7938E-01   D at   82  2
       a =  4.000      CL =  0.9368
      Cm = -0.1222     CD =  0.02254   =>   CDf =  0.00836    CDp =  0.01418

 Side 1  free  transition at x/c =  0.2042   49
 Side 2  free  transition at x/c =  0.1958   41

   7   rms: 0.9680E-03   max: 0.5776E-02   D at   82  1
       a =  4.000      CL =  0.9358
      Cm = -0.1221     CD =  0.02254   =>   CDf =  0.00833    CDp =  0.01421

 Side 1  free  transition at x/c =  0.2043   49
 Side 2  free  transition at x/c =  0.1957   41

   8   rms: 0.5357E-04   max: -.3230E-03   D at   43  2
       a =  4.000      CL =  0.9358
      Cm = -0.1221     CD =  0.02254   =>   CDf =  0.00833    CDp =  0.01421

 Point added to stored polar  1
 Point written to save file  000305M0.1.log                                  
 Dump file unspecified or not available
 Calculating wake trajectory ...
 Calculating source influence matrix ...

 Solving BL system ...

 Side 1  free  transition at x/c =  0.2043   49
 Side 2  free  transition at x/c =  0.1957   41

   1   rms: 0.1612E+00   max: -.8506E+00   T at   41  2   RLX: 0.588
       a =  5.000      CL =  0.9944
      Cm = -0.1203     CD =  0.02276   =>   CDf =  0.00812    CDp =  0.01464

 Side 1  free  transition at x/c =  0.1968   49
 Side 2  free  transition at x/c =  0.2050   41

   2   rms: 0.9413E-01   max: 0.6879E+00   D at   41  2
       a =  5.000      CL =  1.0293
      Cm = -0.1175     CD =  0.02323   =>   CDf =  0.00870    CDp =  0.01453

 Side 1  free  transition at x/c =  0.1906   49
 Side 2  free  transition at x/c =  0.2061   41

   3   rms: 0.1337E-01   max: 0.8239E-01   D at   42  2
       a =  5.000      CL =  1.0308
      Cm = -0.1178     CD =  0.02338   =>   CDf =  0.00850    CDp =  0.01488

 Side 1  free  transition at x/c =  0.1904   49
 Side 2  free  transition at x/c =  0.2059   41

   4   rms: 0.6740E-03   max: 0.5441E-02   D at   42  2
       a =  5.000      CL =  1.0310
      Cm = -0.1178     CD =  0.02338   =>   CDf =  0.00846    CDp =  0.01492

 Side 1  free  transition at x/c =  0.1904   49
 Side 2  free  transition at x/c =  0.2058   41

   5   rms: 0.5312E-05   max: 0.3977E-04   D at   42  2
       a =  5.000      CL =  1.0310
      Cm = -0.1178     CD =  0.02338   =>   CDf =  0.00846    CDp =  0.01492

 Point added to stored polar  1
 Point written to save file  000305M0.1.log                                  
 Dump file unspecified or not available
 Calculating wake trajectory ...
 Calculating source influence matrix ...

 Solving BL system ...

 Side 1  free  transition at x/c =  0.1904   49
 Side 2  free  transition at x/c =  0.2058   41

   1   rms: 0.1259E+00   max: -.5982E+00   T at   41  2   RLX: 0.836
       a =  6.000      CL =  1.1085
      Cm = -0.1138     CD =  0.02438   =>   CDf =  0.00823    CDp =  0.01615

 Side 1  free  transition at x/c =  0.1816   49
 Side 2  free  transition at x/c =  0.2137   40

   2   rms: 0.1451E+00   max: -.8796E+00   T at   40  2   RLX: 0.568
       a =  6.000      CL =  1.1202
      Cm = -0.1136     CD =  0.02578   =>   CDf =  0.00848    CDp =  0.01730

 MRCHDU: Convergence failed at  41  side 2    Res =  0.8078E+02
 MRCHDU: Convergence failed at  42  side 2    Res =  0.3064E+02
 MRCHDU: Convergence failed at  43  side 2    Res =  0.1083E+02
 MRCHDU: Convergence failed at  44  side 2    Res =  0.2248E+02
 MRCHDU: Convergence failed at  45  side 2    Res =  0.4361E+02
 MRCHDU: Convergence failed at  46  side 2    Res =  0.6424E+02
 MRCHDU: Convergence failed at  47  side 2    Res =  0.5482E+02
 MRCHDU: Convergence failed at  48  side 2    Res =  0.3448E+02
 MRCHDU: Convergence failed at  49  side 2    Res =  0.3204E+02
 MRCHDU: Convergence failed at  50  side 2    Res =  0.2037E+02
 MRCHDU: Convergence failed at  51  side 2    Res =  0.2369E+02
 MRCHDU: Convergence failed at  52  side 2    Res =  0.2608E+02
 MRCHDU: Convergence failed at  53  side 2    Res =  0.2823E+02
 MRCHDU: Convergence failed at  54  side 2    Res =  0.2926E+02
 MRCHDU: Convergence failed at  55  side 2    Res =  0.3027E+02
 MRCHDU: Convergence failed at  56  side 2    Res =  0.3072E+02
 MRCHDU: Convergence failed at  57  side 2    Res =  0.2953E+02
 MRCHDU: Convergence failed at  58  side 2    Res =  0.2884E+02
 MRCHDU: Convergence failed at  59  side 2    Res =  0.2841E+02
 MRCHDU: Convergence failed at  60  side 2    Res =  0.2657E+02
 MRCHDU: Convergence failed at  61  side 2    Res =  0.2484E+02
 MRCHDU: Convergence failed at  62  side 2    Res =  0.2309E+02
 MRCHDU: Convergence failed at  63  side 2    Res =  0.2643E+02
 MRCHDU: Convergence failed at  64  side 2    Res =  0.2930E+02
 MRCHDU: Convergence failed at  65  side 2    Res =  0.3381E+02
 MRCHDU: Convergence failed at  66  side 2    Res =  0.4073E+02
 MRCHDU: Convergence failed at  67  side 2    Res =  0.5319E+02
 MRCHDU: Convergence failed at  68  side 2    Res =  0.7801E+02
 MRCHDU: Convergence failed at  69  side 2    Res =  0.2183E+03
 MRCHDU: Convergence failed at  70  side 2    Res =  0.4658E+03
 MRCHDU: Convergence failed at  71  side 2    Res =  0.2236E+03
 MRCHDU: Convergence failed at  72  side 2    Res =  0.2246E+04
 MRCHDU: Convergence failed at  73  side 2    Res =  0.8443E+02
 MRCHDU: Convergence failed at  74  side 2    Res =  0.2877E+02
 MRCHDU: Convergence failed at  75  side 2    Res =  0.1610E+02
 MRCHDU: Convergence failed at  76  side 2    Res =  0.1170E+02
 MRCHDU: Convergence failed at  77  side 2    Res =  0.1028E+02
 MRCHDU: Convergence failed at  78  side 2    Res =  0.1390E+02
 Side 1  free  transition at x/c =  0.1801   49
 Side 2  free  transition at x/c =  0.2210   41

   3   rms: 0.8464E+00   max: 0.3292E+01   D at   52  2   RLX: 0.456
       a =  6.000      CL =  0.8248
      Cm = -0.0233     CD =  0.02190   =>   CDf =  0.00654    CDp =  0.01537

 Side 1  free  transition at x/c =  0.1817   49
 Side 2  free  transition at x/c =  0.2083   40

   4   rms: 0.2132E+00   max: -.8706E+00   D at   71  2   RLX: 0.574
       a =  6.000      CL =  1.0410
      Cm = -0.0901     CD =  0.03022   =>   CDf =  0.00746    CDp =  0.02276

 Side 1  free  transition at x/c =  0.1800   49
 Side 2  free  transition at x/c =  0.2062   40

   5   rms: 0.2273E+00   max: -.1032E+01   D at   71  2   RLX: 0.484
       a =  6.000      CL =  1.1058
      Cm = -0.1073     CD =  0.02886   =>   CDf =  0.00740    CDp =  0.02145

 Side 1  free  transition at x/c =  0.1786   49
 Side 2  free  transition at x/c =  0.2121   40

   6   rms: 0.2542E+00   max: 0.2377E+01   T at   66  2   RLX: 0.390
       a =  6.000      CL =  1.1208
      Cm = -0.1101     CD =  0.02950   =>   CDf =  0.00739    CDp =  0.02211

 MRCHDU: Convergence failed at  65  side 2    Res =  0.1661E+01
 MRCHDU: Convergence failed at  66  side 2    Res =  0.1413E+02
 MRCHDU: Convergence failed at  67  side 2    Res =  0.1247E+02
 MRCHDU: Convergence failed at  68  side 2    Res =  0.9330E+01
 MRCHDU: Convergence failed at  69  side 2    Res =  0.6693E+02
 Side 1  free  transition at x/c =  0.1779   50
 Side 2  free  transition at x/c =  0.2054   39

   7   rms: 0.1744E+00   max: -.7546E+00   D at   61  2   RLX: 0.663
       a =  6.000      CL =  1.0960
      Cm = -0.0980     CD =  0.02767   =>   CDf =  0.00831    CDp =  0.01936

 Side 1  free  transition at x/c =  0.1786   49
 Side 2  free  transition at x/c =  0.2109   40

   8   rms: 0.2321E+00   max: 0.1531E+01   T at   40  2   RLX: 0.855
       a =  6.000      CL =  1.0879
      Cm = -0.1038     CD =  0.02985   =>   CDf =  0.00818    CDp =  0.02166

 Side 1  free  transition at x/c =  0.1792   49
 Side 2  free  transition at x/c =  0.1995   40

   9   rms: 0.1558E+00   max: -.6673E+00   D at   65  2   RLX: 0.749
       a =  6.000      CL =  1.1000
      Cm = -0.1068     CD =  0.02909   =>   CDf =  0.00734    CDp =  0.02175

 Side 1  free  transition at x/c =  0.1791   49
 Side 2  free  transition at x/c =  0.2026   40

  10   rms: 0.1383E+00   max: -.6361E+00   D at   64  2   RLX: 0.786
       a =  6.000      CL =  1.1135
      Cm = -0.1105     CD =  0.02699   =>   CDf =  0.00761    CDp =  0.01939

 Side 1  free  transition at x/c =  0.1789   49
 Side 2  free  transition at x/c =  0.2080   40

  11   rms: 0.4773E+00   max: -.2220E+01   T at   40  2   RLX: 0.225
       a =  6.000      CL =  1.1281
      Cm = -0.1135     CD =  0.02553   =>   CDf =  0.00798    CDp =  0.01755

 Side 1  free  transition at x/c =  0.1788   49
 Side 2  free  transition at x/c =  0.2190   41

  12   rms: 0.2587E-01   max: -.2700E+00   D at   45  2
       a =  6.000      CL =  1.1275
      Cm = -0.1139     CD =  0.02452   =>   CDf =  0.00862    CDp =  0.01590

 Side 1  free  transition at x/c =  0.1788   49
 Side 2  free  transition at x/c =  0.2180   41

  13   rms: 0.3387E-02   max: -.5700E-01   D at   45  2
       a =  6.000      CL =  1.1273
      Cm = -0.1139     CD =  0.02456   =>   CDf =  0.00864    CDp =  0.01592

 Side 1  free  transition at x/c =  0.1788   49
 Side 2  free  transition at x/c =  0.2177   41

  14   rms: 0.1581E-03   max: -.2578E-02   D at   45  2
       a =  6.000      CL =  1.1273
      Cm = -0.1139     CD =  0.02456   =>   CDf =  0.00865    CDp =  0.01591

 Side 1  free  transition at x/c =  0.1788   49
 Side 2  free  transition at x/c =  0.2177   41

  15   rms: 0.1728E-05   max: 0.1822E-04   D at    4  2
       a =  6.000      CL =  1.1273
      Cm = -0.1139     CD =  0.02456   =>   CDf =  0.00865    CDp =  0.01591

 Point added to stored polar  1
 Point written to save file  000305M0.1.log                                  
 Dump file unspecified or not available
 Calculating wake trajectory ...
 Calculating source influence matrix ...

 Solving BL system ...

 Side 1  free  transition at x/c =  0.1788   49
 Side 2  free  transition at x/c =  0.2177   41

   1   rms: 0.1265E+00   max: -.6133E+00   T at   41  2   RLX: 0.815
       a =  7.000      CL =  1.2035
      Cm = -0.1102     CD =  0.02584   =>   CDf =  0.00839    CDp =  0.01744

 Side 1  free  transition at x/c =  0.1703   50
 Side 2  free  transition at x/c =  0.2253   40

   2   rms: 0.1111E+00   max: -.4779E+00   D at   45  2
       a =  7.000      CL =  1.2271
      Cm = -0.1106     CD =  0.02616   =>   CDf =  0.00824    CDp =  0.01792

 Side 1  free  transition at x/c =  0.1689   50
 Side 2  free  transition at x/c =  0.2331   40

   3   rms: 0.4060E-01   max: 0.3258E+00   D at   40  2
       a =  7.000      CL =  1.2255
      Cm = -0.1103     CD =  0.02628   =>   CDf =  0.00894    CDp =  0.01733

 Side 1  free  transition at x/c =  0.1685   50
 Side 2  free  transition at x/c =  0.2308   40

   4   rms: 0.1939E-02   max: 0.2054E-01   T at   40  2
       a =  7.000      CL =  1.2251
      Cm = -0.1102     CD =  0.02637   =>   CDf =  0.00888    CDp =  0.01749

 Side 1  free  transition at x/c =  0.1685   50
 Side 2  free  transition at x/c =  0.2304   40

   5   rms: 0.1997E-02   max: 0.1129E-01   T at   40  2
       a =  7.000      CL =  1.2250
      Cm = -0.1101     CD =  0.02639   =>   CDf =  0.00888    CDp =  0.01751

 Side 1  free  transition at x/c =  0.1685   50
 Side 2  free  transition at x/c =  0.2303   40

   6   rms: 0.1560E-03   max: 0.8842E-03   T at   40  2
       a =  7.000      CL =  1.2250
      Cm = -0.1101     CD =  0.02639   =>   CDf =  0.00888    CDp =  0.01751

 Side 1  free  transition at x/c =  0.1685   50
 Side 2  free  transition at x/c =  0.2303   40

   7   rms: 0.1373E-05   max: 0.5086E-05   D at   60  2
       a =  7.000      CL =  1.2250
      Cm = -0.1101     CD =  0.02639   =>   CDf =  0.00888    CDp =  0.01751

 Point added to stored polar  1
 Point written to save file  000305M0.1.log                                  
 Dump file unspecified or not available
 Calculating wake trajectory ...
 Calculating source influence matrix ...

 Solving BL system ...

 Side 1  free  transition at x/c =  0.1685   50
 Side 2  free  transition at x/c =  0.2303   40

   1   rms: 0.4572E+00   max: -.2232E+01   T at   40  2   RLX: 0.224
       a =  8.000      CL =  1.2500
      Cm = -0.1105     CD =  0.02562   =>   CDf =  0.00889    CDp =  0.01673

 Side 1  free  transition at x/c =  0.1667   50
 Side 2  free  transition at x/c =  0.2406   40

   2   rms: 0.9551E-01   max: 0.3283E+00   T at   50  1
       a =  8.000      CL =  1.3151
      Cm = -0.1057     CD =  0.02789   =>   CDf =  0.00840    CDp =  0.01949

 Side 1  free  transition at x/c =  0.1598   51
 Side 2  free  transition at x/c =  0.2444   39

   3   rms: 0.1020E-01   max: -.9125E-01   D at   51  1
       a =  8.000      CL =  1.3135
      Cm = -0.1057     CD =  0.02805   =>   CDf =  0.00876    CDp =  0.01929

 Side 1  free  transition at x/c =  0.1601   51
 Side 2  free  transition at x/c =  0.2439   39

   4   rms: 0.8182E-03   max: -.4246E-02   D at   81  1
       a =  8.000      CL =  1.3142
      Cm = -0.1057     CD =  0.02804   =>   CDf =  0.00873    CDp =  0.01930

 Side 1  free  transition at x/c =  0.1601   51
 Side 2  free  transition at x/c =  0.2440   39

   5   rms: 0.2649E-04   max: 0.2563E-03   D at   40  2
       a =  8.000      CL =  1.3142
      Cm = -0.1057     CD =  0.02804   =>   CDf =  0.00874    CDp =  0.01930

 Point added to stored polar  1
 Point written to save file  000305M0.1.log                                  
 Dump file unspecified or not available
 Calculating wake trajectory ...
 Calculating source influence matrix ...

 Solving BL system ...

 Side 1  free  transition at x/c =  0.1601   51
 Side 2  free  transition at x/c =  0.2440   39

   1   rms: 0.1280E+00   max: -.6953E+00   T at   39  2   RLX: 0.719
       a =  9.000      CL =  1.3791
      Cm = -0.1027     CD =  0.02946   =>   CDf =  0.00844    CDp =  0.02102

 Side 1  free  transition at x/c =  0.1552   51
 Side 2  free  transition at x/c =  0.2562   39

   2   rms: 0.5519E-01   max: 0.4900E+00   D at   39  2
       a =  9.000      CL =  1.4003
      Cm = -0.1012     CD =  0.03027   =>   CDf =  0.00891    CDp =  0.02136

 Side 1  free  transition at x/c =  0.1526   51
 Side 2  free  transition at x/c =  0.2586   39

   3   rms: 0.5909E-02   max: 0.3691E-01   D at   40  2
       a =  9.000      CL =  1.4033
      Cm = -0.1015     CD =  0.03027   =>   CDf =  0.00872    CDp =  0.02155

 Side 1  free  transition at x/c =  0.1525   51
 Side 2  free  transition at x/c =  0.2586   39

   4   rms: 0.1456E-03   max: 0.1495E-02   D at   40  2
       a =  9.000      CL =  1.4033
      Cm = -0.1015     CD =  0.03028   =>   CDf =  0.00872    CDp =  0.02156

 Side 1  free  transition at x/c =  0.1525   51
 Side 2  free  transition at x/c =  0.2586   39

   5   rms: 0.1879E-05   max: 0.9711E-05   D at   48  2
       a =  9.000      CL =  1.4033
      Cm = -0.1015     CD =  0.03028   =>   CDf =  0.00872    CDp =  0.02156

 Point added to stored polar  1
 Point written to save file  000305M0.1.log                                  
 Dump file unspecified or not available
 Calculating wake trajectory ...
 Calculating source influence matrix ...

 Solving BL system ...

 Side 1  free  transition at x/c =  0.1525   51
 Side 2  free  transition at x/c =  0.2586   39

   1   rms: 0.1190E+00   max: -.5954E+00   T at   39  2   RLX: 0.840
       a = 10.000      CL =  1.4707
      Cm = -0.0973     CD =  0.03233   =>   CDf =  0.00841    CDp =  0.02392

 Side 1  free  transition at x/c =  0.1465   52
 Side 2  free  transition at x/c =  0.2696   39

   2   rms: 0.2983E+00   max: -.1505E+01   T at   39  2   RLX: 0.332
       a = 10.000      CL =  1.4789
      Cm = -0.0976     CD =  0.03270   =>   CDf =  0.00868    CDp =  0.02401

 Side 1  free  transition at x/c =  0.1463   52
 Side 2  free  transition at x/c =  0.2772   39

   3   rms: 0.7082E-01   max: -.3816E+00   D at   42  2
       a = 10.000      CL =  1.4857
      Cm = -0.0969     CD =  0.03255   =>   CDf =  0.00862    CDp =  0.02393

 Side 1  free  transition at x/c =  0.1459   52
 Side 2  free  transition at x/c =  0.2759   39

   4   rms: 0.4344E-02   max: 0.4172E-01   T at   39  2
       a = 10.000      CL =  1.4856
      Cm = -0.0968     CD =  0.03266   =>   CDf =  0.00875    CDp =  0.02391

 Side 1  free  transition at x/c =  0.1459   52
 Side 2  free  transition at x/c =  0.2750   39

   5   rms: 0.2693E-03   max: -.2762E-02   D at   42  2
       a = 10.000      CL =  1.4856
      Cm = -0.0968     CD =  0.03266   =>   CDf =  0.00876    CDp =  0.02390

 Side 1  free  transition at x/c =  0.1459   52
 Side 2  free  transition at x/c =  0.2750   39

   6   rms: 0.1562E-05   max: -.1142E-04   D at    2  2
       a = 10.000      CL =  1.4856
      Cm = -0.0968     CD =  0.03266   =>   CDf =  0.00876    CDp =  0.02390

 Point added to stored polar  1
 Point written to save file  000305M0.1.log                                  
 Dump file unspecified or not available
 Calculating wake trajectory ...
 Calculating source influence matrix ...

 Solving BL system ...

 Side 1  free  transition at x/c =  0.1459   52
 Side 2  free  transition at x/c =  0.2750   39

   1   rms: 0.1297E+00   max: -.7292E+00   T at   39  2   RLX: 0.686
       a = 11.000      CL =  1.5483
      Cm = -0.0942     CD =  0.03460   =>   CDf =  0.00844    CDp =  0.02616

 Side 1  free  transition at x/c =  0.1423   52
 Side 2  free  transition at x/c =  0.2857   38

   2   rms: 0.7311E-01   max: -.3602E+00   D at   38  2
       a = 11.000      CL =  1.5586
      Cm = -0.0916     CD =  0.03597   =>   CDf =  0.00827    CDp =  0.02770

 Side 1  free  transition at x/c =  0.1397   53
 Side 2  free  transition at x/c =  0.2921   38

   3   rms: 0.6356E-02   max: 0.4485E-01   T at   38  2
       a = 11.000      CL =  1.5598
      Cm = -0.0918     CD =  0.03600   =>   CDf =  0.00858    CDp =  0.02742

 Side 1  free  transition at x/c =  0.1397   53
 Side 2  free  transition at x/c =  0.2915   37

   4   rms: 0.2462E-02   max: -.4403E-01   D at   37  2
       a = 11.000      CL =  1.5601
      Cm = -0.0918     CD =  0.03596   =>   CDf =  0.00858    CDp =  0.02737

 Side 1  free  transition at x/c =  0.1397   53
 Side 2  free  transition at x/c =  0.2918   37

   5   rms: 0.4145E-04   max: 0.3572E-03   D at   38  2
       a = 11.000      CL =  1.5601
      Cm = -0.0918     CD =  0.03596   =>   CDf =  0.00859    CDp =  0.02737

 Point added to stored polar  1
 Point written to save file  000305M0.1.log                                  
 Dump file unspecified or not available
 Calculating wake trajectory ...
 Calculating source influence matrix ...

 Solving BL system ...

 Side 1  free  transition at x/c =  0.1397   53
 Side 2  free  transition at x/c =  0.2918   37

   1   rms: 0.1180E+00   max: -.7907E+00   T at   37  2   RLX: 0.632
       a = 12.000      CL =  1.6036
      Cm = -0.0885     CD =  0.03823   =>   CDf =  0.00861    CDp =  0.02962

 Side 1  free  transition at x/c =  0.1361   53
 Side 2  free  transition at x/c =  0.3068   38

   2   rms: 0.7990E-01   max: 0.9995E+00   D at   38  2
       a = 12.000      CL =  1.6314
      Cm = -0.0870     CD =  0.03922   =>   CDf =  0.00816    CDp =  0.03106

 Side 1  free  transition at x/c =  0.1345   54
 Side 2  free  transition at x/c =  0.3121   37

   3   rms: 0.1163E-01   max: 0.1196E+00   D at   37  2
       a = 12.000      CL =  1.6331
      Cm = -0.0871     CD =  0.03920   =>   CDf =  0.00854    CDp =  0.03066

 Side 1  free  transition at x/c =  0.1345   54
 Side 2  free  transition at x/c =  0.3118   37

   4   rms: 0.7763E-03   max: 0.8234E-02   D at   38  2
       a = 12.000      CL =  1.6334
      Cm = -0.0872     CD =  0.03920   =>   CDf =  0.00855    CDp =  0.03064

 Side 1  free  transition at x/c =  0.1344   54
 Side 2  free  transition at x/c =  0.3117   37

   5   rms: 0.9371E-05   max: 0.8326E-04   D at   38  2
       a = 12.000      CL =  1.6334
      Cm = -0.0872     CD =  0.03920   =>   CDf =  0.00855    CDp =  0.03064

 Point added to stored polar  1
 Point written to save file  000305M0.1.log                                  
 Dump file unspecified or not available
 Calculating wake trajectory ...
 Calculating source influence matrix ...

 Solving BL system ...

 Side 1  free  transition at x/c =  0.1344   54
 Side 2  free  transition at x/c =  0.3117   37

   1   rms: 0.1322E+00   max: -.8031E+00   T at   37  2   RLX: 0.623
       a = 13.000      CL =  1.6914
      Cm = -0.0850     CD =  0.04132   =>   CDf =  0.00821    CDp =  0.03311

 Side 1  free  transition at x/c =  0.1317   54
 Side 2  free  transition at x/c =  0.3294   37

   2   rms: 0.6688E-01   max: 0.7542E+00   D at   37  2
       a = 13.000      CL =  1.6877
      Cm = -0.0819     CD =  0.04403   =>   CDf =  0.00842    CDp =  0.03562

 Side 1  free  transition at x/c =  0.1295   54
 Side 2  free  transition at x/c =  0.3318   37

   3   rms: 0.7129E-02   max: 0.5613E-01   D at   38  2
       a = 13.000      CL =  1.6876
      Cm = -0.0819     CD =  0.04400   =>   CDf =  0.00819    CDp =  0.03581

 Side 1  free  transition at x/c =  0.1294   54
 Side 2  free  transition at x/c =  0.3309   37

   4   rms: 0.2209E-03   max: 0.2156E-02   D at   83  1
       a = 13.000      CL =  1.6874
      Cm = -0.0819     CD =  0.04401   =>   CDf =  0.00818    CDp =  0.03582

 Side 1  free  transition at x/c =  0.1294   54
 Side 2  free  transition at x/c =  0.3309   37

   5   rms: 0.4775E-05   max: -.4573E-04   D at   38  2
       a = 13.000      CL =  1.6874
      Cm = -0.0819     CD =  0.04401   =>   CDf =  0.00818    CDp =  0.03582

 Point added to stored polar  1
 Point written to save file  000305M0.1.log                                  
 Dump file unspecified or not available
 Calculating wake trajectory ...
 Calculating source influence matrix ...

 Solving BL system ...

 Side 1  free  transition at x/c =  0.1294   54
 Side 2  free  transition at x/c =  0.3309   37

   1   rms: 0.1104E+00   max: -.6255E+00   T at   37  2   RLX: 0.799
       a = 14.000      CL =  1.7258
      Cm = -0.0780     Got result {'DD': 0.0214, 'Dmin': 0.02254, 'LL': -0.7355}
Completed successfully in 1.90 seconds. [{'DD': 0.0214, 'Dmin': 0.02254, 'LL': -0.7355}]
CD =  0.04836   =>   CDf =  0.00785    CDp =  0.04051

 Side 1  free  transition at x/c =  0.1258   55
 Side 2  free  transition at x/c =  0.3492   37

   2   rms: 0.3387E-01   max: 0.4015E+00   D at   37  2
       a = 14.000      CL =  1.7394
      Cm = -0.0773     CD =  0.04897   =>   CDf =  0.00801    CDp =  0.04096

 Side 1  free  transition at x/c =  0.1252   55
 Side 2  free  transition at x/c =  0.3521   37

   3   rms: 0.1954E-02   max: -.9045E-02   T at   37  2
       a = 14.000      CL =  1.7409
      Cm = -0.0774     CD =  0.04887   =>   CDf =  0.00802    CDp =  0.04085

 Side 1  free  transition at x/c =  0.1252   55
 Side 2  free  transition at x/c =  0.3525   37

   4   rms: 0.9123E-04   max: 0.4725E-03   D at   38  2
       a = 14.000      CL =  1.7410
      Cm = -0.0774     CD =  0.04888   =>   CDf =  0.00803    CDp =  0.04085

 Point added to stored polar  1
 Point written to save file  000305M0.1.log                                  
 Dump file unspecified or not available
 Calculating wake trajectory ...
 Calculating source influence matrix ...

 Solving BL system ...

 Side 1  free  transition at x/c =  0.1252   55
 Side 2  free  transition at x/c =  0.3525   37

   1   rms: 0.1155E+00   max: -.7162E+00   T at   37  2   RLX: 0.698
       a = 15.000      CL =  1.7872
      Cm = -0.0746     CD =  0.05209   =>   CDf =  0.00769    CDp =  0.04440

 Side 1  free  transition at x/c =  0.1228   55
 Side 2  free  transition at x/c =  0.3717   37

   2   rms: 0.3919E-01   max: 0.3129E+00   D at   37  2
       a = 15.000      CL =  1.7751
      Cm = -0.0729     CD =  0.05609   =>   CDf =  0.00793    CDp =  0.04816

 Side 1  free  transition at x/c =  0.1213   55
 Side 2  free  transition at x/c =  0.3742   37

   3   rms: 0.2096E-02   max: 0.2813E-01   D at   83  1
       a = 15.000      CL =  1.7751
      Cm = -0.0729     CD =  0.05596   =>   CDf =  0.00768    CDp =  0.04829

 Side 1  free  transition at x/c =  0.1212   55
 Side 2  free  transition at x/c =  0.3746   37

   4   rms: 0.7402E-04   max: 0.1528E-02   D at   79  2
       a = 15.000      CL =  1.7751
      Cm = -0.0729     CD =  0.05596   =>   CDf =  0.00767    CDp =  0.04829

 Point added to stored polar  1
 Point written to save file  000305M0.1.log                                  
 Dump file unspecified or not available

.OPERva   c>  
 XFOIL   c>  
