Job launching after 0.60 seconds in submission.
Running python job.
Changed into dir /home/simonx/Documents/Udacity/Projects/capstone/PESM_NSGA2_CST_XFoil
Importing evaluationFunctionXFoil.py
Running evaluationFunctionXFoil.main()
0
1
2
0.04
resp: 
 ===================================================
  XFOIL Version 6.97
  Copyright (C) 2000   Mark Drela, Harold Youngren

  This software comes with ABSOLUTELY NO WARRANTY,
    subject to the GNU General Public License.

  Caveat computor
 ===================================================

 File  xfoil.def  not found

   QUIT    Exit program

  .OPER    Direct operating point(s)
  .MDES    Complex mapping design routine
  .QDES    Surface speed design routine
  .GDES    Geometry design routine

   SAVE f  Write airfoil to labeled coordinate file
   PSAV f  Write airfoil to plain coordinate file
   ISAV f  Write airfoil to ISES coordinate file
   MSAV f  Write airfoil to MSES coordinate file
   REVE    Reverse written-airfoil node ordering
   DELI i  Change written-airfoil file delimiters

   LOAD f  Read buffer airfoil from coordinate file
   NACA i  Set NACA 4,5-digit airfoil and buffer airfoil
   INTE    Set buffer airfoil by interpolating two airfoils
   NORM    Buffer airfoil normalization toggle
   HALF    Halve the number of points in buffer airfoil
   XYCM rr Change CM reference location, currently  0.25000 0.00000

   BEND    Display structural properties of current airfoil

   PCOP    Set current-airfoil panel nodes directly from buffer airfoil points
   PANE    Set current-airfoil panel nodes ( 160 ) based on curvature
  .PPAR    Show/change paneling

  .PLOP    Plotting options

   WDEF f  Write  current-settings file
   RDEF f  Reread current-settings file
   NAME s  Specify new airfoil name
   NINC    Increment name version number

   Z       Zoom    | (available in all menus)
   U       Unzoom  | 

 XFOIL   c>   ...............................................

  G raphics-enable flag:        T
  S ize of plot object          10.00"
  A spect ratio of plot object   0.5500
  P age dimensions              11.00 x  8.50"
  M argins from page edges       0.00",  0.00"
  F ont size (relative)          0.0150
  W indow/screen size fraction   0.8000
  B lowup input method:        Cursor    
  O rientation of plot:        Landscape 
  C olor PostScript output?     F

      Option, Value   (or <Return>)    c>   ...............................................

  G raphics-enable flag:        F
  S ize of plot object          10.00"
  A spect ratio of plot object   0.5500
  P age dimensions              11.00 x  8.50"
  M argins from page edges       0.00",  0.00"
  F ont size (relative)          0.0150
  W indow/screen size fraction   0.8000
  B lowup input method:        Cursor    
  O rientation of plot:        Landscape 
  C olor PostScript output?     F

      Option, Value   (or <Return>)    c>  
 XFOIL   c>  
 Labeled airfoil file.  Name:  000081                                          

 Number of input coordinate points: 200
 Clockwise ordering
 Max thickness =     0.163801  at x =   0.194
 Max camber    =     0.081114  at x =   0.547

  LE  x,y  =  -0.00000  -0.00052  |   Chord =   0.99988
  TE  x,y  =   0.99988   0.00006  |

 Current airfoil nodes set from buffer airfoil nodes ( 200 )

 XFOIL   c>  
 You are working with the buffer airfoil

.GDES   c>  
  i       x        y      angle
   2   0.9990   0.0005    0.053
   3   0.9978   0.0011    0.076
   4   0.9961   0.0019    0.119
   5   0.9938   0.0029    0.146
   6   0.9911   0.0042    0.184
   7   0.9880   0.0056    0.191
   8   0.9843   0.0073    0.221
   9   0.9801   0.0092    0.246
  10   0.9755   0.0113    0.274
  11   0.9704   0.0135    0.288
  12   0.9649   0.0159    0.307
  13   0.9589   0.0185    0.333
  14   0.9524   0.0213    0.349
  15   0.9455   0.0241    0.357
  16   0.9382   0.0271    0.383
  17   0.9304   0.0303    0.382
  18   0.9222   0.0335    0.404
  19   0.9135   0.0368    0.405
  20   0.9045   0.0402    0.416
  21   0.8951   0.0437    0.428
  22   0.8853   0.0472    0.423
  23   0.8751   0.0508    0.433
  24   0.8645   0.0544    0.434
  25   0.8536   0.0581    0.438
  26   0.8423   0.0618    0.437
  27   0.8307   0.0655    0.440
  28   0.8187   0.0692    0.441
  29   0.8065   0.0729    0.437
  30   0.7939   0.0766    0.444
  31   0.7810   0.0802    0.441
  32   0.7679   0.0838    0.445
  33   0.7545   0.0874    0.450
  34   0.7409   0.0910    0.449
  35   0.7270   0.0945    0.456
  36   0.7129   0.0979    0.463
  37   0.6986   0.1012    0.468
  38   0.6841   0.1045    0.479
  39   0.6694   0.1077    0.489
  40   0.6545   0.1108    0.504
  41   0.6395   0.1138    0.516
  42   0.6243   0.1166    0.534
  43   0.6091   0.1194    0.551
  44   0.5937   0.1220    0.572
  45   0.5782   0.1245    0.591
  46   0.5627   0.1268    0.616
  47   0.5471   0.1289    0.641
  48   0.5314   0.1309    0.662
  49   0.5157   0.1327    0.698
  50   0.5000   0.1343    0.719
  51   0.4843   0.1358    0.749
  52   0.4686   0.1370    0.781
  53   0.4529   0.1379    0.805
  54   0.4373   0.1387    0.838
  55   0.4218   0.1392    0.867
  56   0.4063   0.1395    0.891
  57   0.3909   0.1396    0.921
  58   0.3757   0.1394    0.943
  59   0.3605   0.1390    0.964
  60   0.3455   0.1383    0.995
  61   0.3306   0.1373    1.003
  62   0.3159   0.1362    1.028
  63   0.3014   0.1347    1.038
  64   0.2871   0.1330    1.050
  65   0.2730   0.1311    1.060
  66   0.2591   0.1290    1.071
  67   0.2455   0.1266    1.067
  68   0.2321   0.1240    1.076
  69   0.2190   0.1212    1.075
  70   0.2061   0.1182    1.070
  71   0.1935   0.1151    1.069
  72   0.1813   0.1117    1.068
  73   0.1693   0.1082    1.063
  74   0.1577   0.1046    1.062
  75   0.1464   0.1009    1.064
  76   0.1355   0.0970    1.062
  77   0.1249   0.0930    1.066
  78   0.1147   0.0890    1.084
  79   0.1049   0.0849    1.100
  80   0.0955   0.0807    1.119
  81   0.0865   0.0765    1.161
  82   0.0778   0.0723    1.199
  83   0.0696   0.0681    1.271
  84   0.0618   0.0638    1.342
  85   0.0545   0.0596    1.445
  86   0.0476   0.0554    1.575
  87   0.0411   0.0512    1.729
  88   0.0351   0.0471    1.917
  89   0.0296   0.0430    2.160
  90   0.0245   0.0389    2.448
  91   0.0199   0.0348    2.805
  92   0.0157   0.0308    3.228
  93   0.0120   0.0269    3.704
  94   0.0089   0.0230    4.311
  95   0.0062   0.0191    4.933
  96   0.0039   0.0152    5.624
  97   0.0022   0.0114    6.319
  98   0.0010   0.0076    6.887
  99   0.0002   0.0038    7.300
 100   0.0000   0.0000    6.326
 101   0.0002  -0.0054    5.198
 102   0.0010  -0.0108    5.226
 103   0.0022  -0.0162    5.287
 104   0.0039  -0.0214    5.334
 105   0.0062  -0.0264    5.382
 106   0.0089  -0.0313    5.433
 107   0.0120  -0.0360    5.426
 108   0.0157  -0.0403    5.415
 109   0.0199  -0.0444    5.324
 110   0.0245  -0.0482    5.191
 111   0.0296  -0.0517    5.009
 112   0.0351  -0.0548    4.783
 113   0.0411  -0.0575    4.507
 114   0.0476  -0.0598    4.208
 115   0.0545  -0.0618    3.891
 116   0.0618  -0.0633    3.570
 117   0.0696  -0.0644    3.247
 118   0.0778  -0.0652    2.940
 119   0.0865  -0.0655    2.641
 120   0.0955  -0.0654    2.353
 121   0.1049  -0.0649    2.100
 122   0.1147  -0.0640    1.846
 123   0.1249  -0.0628    1.618
 124   0.1355  -0.0612    1.415
 125   0.1464  -0.0593    1.218
 126   0.1577  -0.0571    1.041
 127   0.1693  -0.0545    0.875
 128   0.1813  -0.0518    0.730
 129   0.1935  -0.0488    0.590
 130   0.2061  -0.0455    0.457
 131   0.2190  -0.0421    0.347
 132   0.2321  -0.0386    0.237
 133   0.2455  -0.0349    0.138
 134   0.2591  -0.0311    0.048
 135   0.2730  -0.0272   -0.035
 136   0.2871  -0.0232   -0.111
 137   0.3014  -0.0193   -0.181
 138   0.3159  -0.0153   -0.245
 139   0.3306  -0.0114   -0.296
 140   0.3455  -0.0074   -0.357
 141   0.3605  -0.0036   -0.393
 142   0.3757   0.0002   -0.444
 143   0.3909   0.0039   -0.476
 144   0.4063   0.0075   -0.509
 145   0.4218   0.0109   -0.538
 146   0.4373   0.0142   -0.561
 147   0.4529   0.0174   -0.586
 148   0.4686   0.0204   -0.600
 149   0.4843   0.0233   -0.618
 150   0.5000   0.0259   -0.632
 151   0.5157   0.0284   -0.641
 152   0.5314   0.0307   -0.654
 153   0.5471   0.0329   -0.652
 154   0.5627   0.0348   -0.669
 155   0.5782   0.0366   -0.668
 156   0.5937   0.0381   -0.674
 157   0.6091   0.0395   -0.676
 158   0.6243   0.0407   -0.683
 159   0.6395   0.0417   -0.684
 160   0.6545   0.0425   -0.689
 161   0.6694   0.0431   -0.690
 162   0.6841   0.0435   -0.690
 163   0.6986   0.0437   -0.699
 164   0.7129   0.0438   -0.703
 165   0.7270   0.0437   -0.700
 166   0.7409   0.0434   -0.704
 167   0.7545   0.0430   -0.709
 168   0.7679   0.0424   -0.713
 169   0.7810   0.0416   -0.719
 170   0.7939   0.0408   -0.708
 171   0.8065   0.0397   -0.723
 172   0.8187   0.0386   -0.716
 173   0.8307   0.0373   -0.711
 174   0.8423   0.0359   -0.718
 175   0.8536   0.0344   -0.710
 176   0.8645   0.0328   -0.705
 177   0.8751   0.0311   -0.698
 178   0.8853   0.0294   -0.689
 179   0.8951   0.0276   -0.677
 180   0.9045   0.0258   -0.668
 181   0.9135   0.0239   -0.645
 182   0.9222   0.0220   -0.633
 183   0.9304   0.0201   -0.620
 184   0.9382   0.0182   -0.584
 185   0.9455   0.0164   -0.567
 186   0.9524   0.0146   -0.537
 187   0.9589   0.0128   -0.518
 188   0.9649   0.0111   -0.475
 189   0.9704   0.0095   -0.450
 190   0.9755   0.0080   -0.408
 191   0.9801   0.0065   -0.380
 192   0.9843   0.0052   -0.342
 193   0.9880   0.0040   -0.287
 194   0.9911   0.0030   -0.273
 195   0.9938   0.0021   -0.213
 196   0.9961   0.0014   -0.174
 197   0.9978   0.0008   -0.146
 198   0.9990   0.0003   -0.065
 199   0.9998   0.0001    0.024

 Maximum panel corner angle =  7.300   at  i,x,y  =  99   0.0002   0.0038

 Enter corner angle criterion for refinement (deg):   3.650
 Enter type of spline parameter (1=uniform, 2=arclength):   1
 Enter refinement x limits:  -0.10000   1.10000
 Number of points added:           46
 Max thickness =     0.163822  at x =   0.194
 Max camber    =     0.080881  at x =   0.547

 Maximum panel corner angle =  3.247   at  i,x,y  = 163   0.0696  -0.0644

.GDES   c>  
 Buffer airfoil is not identical to current airfoil

 XFOIL   c>  
 Blunt trailing edge.  Gap =  0.00027

 Paneling parameters used...
   Number of panel nodes       160
   Panel bunching parameter    1.000
   TE/LE panel density ratio   0.150
   Refined-area/LE panel density ratio    0.200
   Top    side refined area x/c limits  1.000 1.000
   Bottom side refined area x/c limits  1.000 1.000

 XFOIL   c>  
Enter output filename   s>  
 XFOIL   c>  
.OPERi   c>   Current iteration limit:          20

Enter new iteration limit   i>  
Enter new iteration limit   i>  
Enter new iteration limit   i>  
.OPERi   c>  
 M  =    0.0000
 Re =  0.3000E+06

.OPERv   c>  
 Sonic Cp =   -420.65      Sonic Q/Qinf =    22.825


.OPERv   c>  
 Polar  1 newly created for accumulation
 Airfoil archived with polar: 000081                                          

Enter  polar save filename  OR  <return> for no file   s>  
 New polar save file available

Enter  polar dump filename  OR  <return> for no file   s>  
 Polar dump file will NOT be written

 Polar accumulation enabled

.OPERva   c>   Calculating unit vorticity distributions ...
 Calculating wake trajectory ...
 Calculating source influence matrix ...

 Solving BL system ...

 Initializing BL ...
    side            1  ...
 MRCHUE: Inverse mode at  58     Hk =   4.084
 MRCHUE: Inverse mode at  59     Hk =   4.899
 MRCHUE: Inverse mode at  60     Hk =   5.700
 MRCHUE: Inverse mode at  61     Hk =   6.490
 MRCHUE: Inverse mode at  62     Hk =   7.275
 MRCHUE: Inverse mode at  63     Hk =   8.055
 MRCHUE: Inverse mode at  64     Hk =   8.833
 MRCHUE: Inverse mode at  65     Hk =   7.981
 MRCHUE: Inverse mode at  66     Hk =   4.898
 MRCHUE: Inverse mode at  67     Hk =   3.164
 MRCHUE: Inverse mode at  86     Hk =   2.500
    side            2  ...
 MRCHUE: Inverse mode at  30     Hk =   4.143
 MRCHUE: Inverse mode at  31     Hk =   4.920
 MRCHUE: Inverse mode at  32     Hk =   5.715
 MRCHUE: Inverse mode at  33     Hk =   6.540
 MRCHUE: Inverse mode at  34     Hk =   7.402
 MRCHUE: Inverse mode at  35     Hk =   8.308
 MRCHUE: Inverse mode at  36     Hk =   9.260
 MRCHUE: Inverse mode at  37     Hk =   7.680
 MRCHUE: Inverse mode at  38     Hk =   3.954
 MRCHUE: Inverse mode at  39     Hk =   2.500

 Side 1  free  transition at x/c =  0.5973   65
 Side 2  free  transition at x/c =  0.2399   37

   1   rms: 0.1448E+00   max: -.8108E+00   T at   65  1   RLX: 0.617
       a =  2.000      CL =  1.3273
      Cm = -0.2869     CD =  0.01685   =>   CDf =  0.00749    CDp =  0.00936

 MRCHDU: Convergence failed at  67  side 1    Res =  0.2083E+01
 Side 1  free  transition at x/c =  0.6222   66
 Side 2  free  transition at x/c =  0.2275   36

   2   rms: 0.7931E-01   max: 0.4098E+00   T at   67  1
       a =  2.000      CL =  1.2808
      Cm = -0.2759     CD =  0.01575   =>   CDf =  0.00737    CDp =  0.00838

 Side 1  free  transition at x/c =  0.6425   66
 Side 2  free  transition at x/c =  0.2213   37

   3   rms: 0.4828E-01   max: 0.5764E+00   C at   66  1
       a =  2.000      CL =  1.2667
      Cm = -0.2727     CD =  0.01507   =>   CDf =  0.00683    CDp =  0.00824

 Side 1  free  transition at x/c =  0.6405   66
 Side 2  free  transition at x/c =  0.2206   37

   4   rms: 0.8681E-02   max: -.8401E-01   D at   68  1
       a =  2.000      CL =  1.2637
      Cm = -0.2722     CD =  0.01528   =>   CDf =  0.00701    CDp =  0.00827

 Side 1  free  transition at x/c =  0.6375   66
 Side 2  free  transition at x/c =  0.2199   37

   5   rms: 0.4912E-03   max: -.6822E-02   D at   68  1
       a =  2.000      CL =  1.2636
      Cm = -0.2722     CD =  0.01530   =>   CDf =  0.00705    CDp =  0.00825

 Side 1  free  transition at x/c =  0.6374   66
 Side 2  free  transition at x/c =  0.2199   37

   6   rms: 0.5253E-05   max: -.2527E-04   D at   85  1
       a =  2.000      CL =  1.2636
      Cm = -0.2722     CD =  0.01530   =>   CDf =  0.00705    CDp =  0.00825

 Point added to stored polar  1
 Point written to save file  000081M0.04.log                                 
 Dump file unspecified or not available
 Calculating wake trajectory ...
 Calculating source influence matrix ...

 Solving BL system ...

 Side 1  free  transition at x/c =  0.6374   66
 Side 2  free  transition at x/c =  0.2199   37

   1   rms: 0.1446E+00   max: -.7645E+00   T at   37  2   RLX: 0.654
       a =  3.000      CL =  1.3379
      Cm = -0.2719     CD =  0.01555   =>   CDf =  0.00688    CDp =  0.00868

 Side 1  free  transition at x/c =  0.6214   66
 Side 2  free  transition at x/c =  0.2317   37

   2   rms: 0.5482E-01   max: -.3708E+00   T at   37  2
       a =  3.000      CL =  1.3788
      Cm = -0.2721     CD =  0.01559   =>   CDf =  0.00700    CDp =  0.00858

 Side 1  free  transition at x/c =  0.6142   67
 Side 2  free  transition at x/c =  0.2393   36

   3   rms: 0.2672E-01   max: -.1945E+00   D at   36  2
       a =  3.000      CL =  1.3796
      Cm = -0.2722     CD =  0.01569   =>   CDf =  0.00702    CDp =  0.00867

 Side 1  free  transition at x/c =  0.6143   67
 Side 2  free  transition at x/c =  0.2402   36

   4   rms: 0.1017E-02   max: 0.9568E-02   D at   37  2
       a =  3.000      CL =  1.3795
      Cm = -0.2722     CD =  0.01570   =>   CDf =  0.00705    CDp =  0.00865

 Side 1  free  transition at x/c =  0.6143   67
 Side 2  free  transition at x/c =  0.2401   36

   5   rms: 0.2112E-05   max: 0.1825E-04   D at   37  2
       a =  3.000      CL =  1.3795
      Cm = -0.2722     CD =  0.01570   =>   CDf =  0.00705    CDp =  0.00865

 Point added to stored polar  1
 Point written to save file  000081M0.04.log                                 
 Dump file unspecified or not available
 Calculating wake trajectory ...
 Calculating source influence matrix ...

 Solving BL system ...

 Side 1  free  transition at x/c =  0.6143   67
 Side 2  free  transition at x/c =  0.2401   36

   1   rms: 0.1458E+00   max: -.7833E+00   T at   36  2   RLX: 0.638
       a =  4.000      CL =  1.4517
      Cm = -0.2718     CD =  0.01602   =>   CDf =  0.00686    CDp =  0.00916

 Side 1  free  transition at x/c =  0.6000   67
 Side 2  free  transition at x/c =  0.2554   36

   2   rms: 0.5716E-01   max: 0.4324E+00   D at   36  2
       a =  4.000      CL =  1.4913
      Cm = -0.2714     CD =  0.01623   =>   CDf =  0.00714    CDp =  0.00909

 Side 1  free  transition at x/c =  0.5917   67
 Side 2  free  transition at x/c =  0.2619   36

   3   rms: 0.1342E-01   max: -.1017E+00   D at   36  2
       a =  4.000      CL =  1.4931
      Cm = -0.2717     CD =  0.01626   =>   CDf =  0.00702    CDp =  0.00924

 Side 1  free  transition at x/c =  0.5920   67
 Side 2  free  transition at x/c =  0.2632   36

   4   rms: 0.1564E-03   max: 0.1695E-02   D at   37  2
       a =  4.000      CL =  1.4931
      Cm = -0.2717     CD =  0.01626   =>   CDf =  0.00702    CDp =  0.00924

 Side 1  free  transition at x/c =  0.5920   67
 Side 2  free  transition at x/c =  0.2632   36

   5   rms: 0.8390E-06   max: -.4357E-05   D at   36  2
       a =  4.000      CL =  1.4931
      Cm = -0.2717     CD =  0.01626   =>   CDf =  0.00702    CDp =  0.00924

 Point added to stored polar  1
 Point written to save file  000081M0.04.log                                 
 Dump file unspecified or not available
 Calculating wake trajectory ...
 Calculating source influence matrix ...

 Solving BL system ...

 Side 1  free  transition at x/c =  0.5920   67
 Side 2  free  transition at x/c =  0.2632   36

   1   rms: 0.1472E+00   max: -.8271E+00   T at   36  2   RLX: 0.605
       a =  5.000      CL =  1.5603
      Cm = -0.2710     CD =  0.01664   =>   CDf =  0.00682    CDp =  0.00983

 Side 1  free  transition at x/c =  0.5792   67
 Side 2  free  transition at x/c =  0.2836   36

   2   rms: 0.6971E-01   max: 0.7758E+00   D at   36  2
       a =  5.000      CL =  1.6021
      Cm = -0.2703     CD =  0.01690   =>   CDf =  0.00680    CDp =  0.01010

 Side 1  free  transition at x/c =  0.5697   68
 Side 2  free  transition at x/c =  0.2897   36

   3   rms: 0.4127E-02   max: -.4218E-01   D at   68  1
       a =  5.000      CL =  1.6039
      Cm = -0.2706     CD =  0.01697   =>   CDf =  0.00697    CDp =  0.01000

 Side 1  free  transition at x/c =  0.5703   68
 Side 2  free  transition at x/c =  0.2892   36

   4   rms: 0.1361E-03   max: -.1005E-02   D at    4  1
       a =  5.000      CL =  1.6039
      Cm = -0.2706     CD =  0.01698   =>   CDf =  0.00696    CDp =  0.01002

 Side 1  free  transition at x/c =  0.5703   68
 Side 2  free  transition at x/c =  0.2892   36

   5   rms: 0.2964E-05   max: -.3345E-04   D at    4  1
       a =  5.000      CL =  1.6039
      Cm = -0.2706     CD =  0.01698   =>   CDf =  0.00696    CDp =  0.01002

 Point added to stored polar  1
 Point written to save file  000081M0.04.log                                 
 Dump file unspecified or not available
 Calculating wake trajectory ...
 Calculating source influence matrix ...

 Solving BL system ...

 Side 1  free  transition at x/c =  0.5703   68
 Side 2  free  transition at x/c =  0.2892   36

   1   rms: 0.2044E+00   max: -.1191E+01   T at   36  2   RLX: 0.420
       a =  6.000      CL =  1.6529
      Cm = -0.2710     CD =  0.01691   =>   CDf =  0.00697    CDp =  0.00994

 Side 1  free  transition at x/c =  0.5612   67
 Side 2  free  transition at x/c =  0.3085   36

   2   rms: 0.8248E-01   max: -.3672E+00   T at   36  2
       a =  6.000      CL =  1.7065
      Cm = -0.2680     CD =  0.01785   =>   CDf =  0.00676    CDp =  0.01109

 Side 1  free  transition at x/c =  0.5475   68
 Side 2  free  transition at x/c =  0.3238   36

   3   rms: 0.3628E-01   max: 0.5435E+00   D at   36  2
       a =  6.000      CL =  1.7114
      Cm = -0.2690     CD =  0.01779   =>   CDf =  0.00679    CDp =  0.01100

 Side 1  free  transition at x/c =  0.5487   68
 Side 2  free  transition at x/c =  0.3221   36

   4   rms: 0.6555E-02   max: 0.7389E-01   D at   36  2
       a =  6.000      CL =  1.7112
      Cm = -0.2690     CD =  0.01781   =>   CDf =  0.00676    CDp =  0.01105

 Side 1  free  transition at x/c =  0.5486   68
 Side 2  free  transition at x/c =  0.3206   36

   5   rms: 0.1099E-03   max: -.1747E-02   D at   38  2
       a =  6.000      CL =  1.7112
      Cm = -0.2690     CD =  0.01781   =>   CDf =  0.00677    CDp =  0.01104

 Side 1  free  transition at x/c =  0.5486   68
 Side 2  free  transition at x/c =  0.3205   36

   6   rms: 0.8074E-06   max: -.5342E-05   D at   36  2
       a =  6.000      CL =  1.7112
      Cm = -0.2690     CD =  0.01781   =>   CDf =  0.00677    CDp =  0.01104

 Point added to stored polar  1
 Point written to save file  000081M0.04.log                                 
 Dump file unspecified or not available
 Calculating wake trajectory ...
 Calculating source influence matrix ...

 Solving BL system ...

 Side 1  free  transition at x/c =  0.5486   68
 Side 2  free  transition at x/c =  0.3205   36

   1   rms: 0.1463E+00   max: -.8941E+00   T at   36  2   RLX: 0.559
       a =  7.000      CL =  1.7681
      Cm = -0.2674     CD =  0.01828   =>   CDf =  0.00655    CDp =  0.01174

 Side 1  free  transition at x/c =  0.5269   68
 Side 2  free  transition at x/c =  0.3387   36

   2   rms: 0.7483E-01   max: -.4953E+00   D at   68  1
       a =  7.000      CL =  1.8048
      Cm = -0.2644     CD =  0.01843   =>   CDf =  0.00683    CDp =  0.01161

 Side 1  free  transition at x/c =  0.5161   67
 Side 2  free  transition at x/c =  0.3533   36

   3   rms: 0.3657E-01   max: -.2926E+00   D at   36  2
       a =  7.000      CL =  1.8012
      Cm = -0.2637     CD =  0.01879   =>   CDf =  0.00679    CDp =  0.01201

 Side 1  free  transition at x/c =  0.5153   67
 Side 2  free  transition at x/c =  0.3572   37

   4   rms: 0.6581E-02   max: 0.1265E+00   D at   37  2
       a =  7.000      CL =  1.8021
      Cm = -0.2640     CD =  0.01874   =>   CDf =  0.00671    CDp =  0.01203

 Side 1  free  transition at x/c =  0.5152   67
 Side 2  free  transition at x/c =  0.3566   37

   5   rms: 0.6479E-03   max: 0.7803E-02   D at   37  2
       a =  7.000      CL =  1.8021
      Cm = -0.2640     CD =  0.01874   =>   CDf =  0.00670    CDp =  0.01203

 Side 1  free  transition at x/c =  0.5151   67
 Side 2  free  transition at x/c =  0.3565   37

   6   rms: 0.1669E-05   max: 0.1602E-04   T at   37  2
       a =  7.000      CL =  1.8021
      Cm = -0.2640     CD =  0.01874   =>   CDf =  0.00670    CDp =  0.01203

 Point added to stored polar  1
 Point written to save file  000081M0.04.log                                 
 Dump file unspecified or not available
 Calculating wake trajectory ...
 Calculating source influence matrix ...

 Solving BL system ...

 Side 1  free  transition at x/c =  0.5151   67
 Side 2  free  transition at x/c =  0.3565   37

   1   rms: 0.1545E+00   max: -.1017E+01   T at   37  2   RLX: 0.492
       a =  8.000      CL =  1.8392
      Cm = -0.2603     CD =  0.01917   =>   CDf =  0.00647    CDp =  0.01269

 Side 1  free  transition at x/c =  0.4942   67
 Side 2  free  transition at x/c =  0.3734   36

   2   rms: 0.7870E-01   max: -.5893E+00   T at   36  2   RLX: 0.848
       a =  8.000      CL =  1.8586
      Cm = -0.2542     CD =  0.02028   =>   CDf =  0.00679    CDp =  0.01348

 MRCHDU: Convergence failed at  38  side 2    Res =  0.1805E+01
 MRCHDU: Convergence failed at  39  side 2    Res =  0.5653E+01
 MRCHDU: Convergence failed at  40  side 2    Res =  0.2718E+01
 MRCHDU: Convergence failed at  41  side 2    Res =  0.2760E+01
 MRCHDU: Convergence failed at  42  side 2    Res =  0.2833E+01
 MRCHDU: Convergence failed at  43  side 2    Res =  0.3017E+01
 MRCHDU: Convergence failed at  44  side 2    Res =  0.3200E+01
 MRCHDU: Convergence failed at  45  side 2    Res =  0.3335E+01
 MRCHDU: Convergence failed at  46  side 2    Res =  0.3494E+01
 MRCHDU: Convergence failed at  47  side 2    Res =  0.3647E+01
 MRCHDU: Convergence failed at  48  side 2    Res =  0.3786E+01
 MRCHDU: Convergence failed at  49  side 2    Res =  0.3958E+01
 MRCHDU: Convergence failed at  50  side 2    Res =  0.4080E+01
 MRCHDU: Convergence failed at  51  side 2    Res =  0.4180E+01
 MRCHDU: Convergence failed at  52  side 2    Res =  0.4273E+01
 MRCHDU: Convergence failed at  53  side 2    Res =  0.4360E+01
 MRCHDU: Convergence failed at  54  side 2    Res =  0.4453E+01
 MRCHDU: Convergence failed at  55  side 2    Res =  0.4570E+01
 MRCHDU: Convergence failed at  56  side 2    Res =  0.5083E+01
 MRCHDU: Convergence failed at  57  side 2    Res =  0.5586E+01
 MRCHDU: Convergence failed at  58  side 2    Res =  0.6651E+01
 MRCHDU: Convergence failed at  59  side 2    Res =  0.8753E+01
 MRCHDU: Convergence failed at  60  side 2    Res =  0.1709E+02
 MRCHDU: Convergence failed at  61  side 2    Res =  0.4584E+02
 MRCHDU: Convergence failed at  62  side 2    Res =  0.7441E+01
 Side 1  free  transition at x/c =  0.4791   66
 Side 2  free  transition at x/c =  0.3960   37

   3   rms: 0.1402E+00   max: -.7289E+00   D at   62  2   RLX: 0.686
       a =  8.000      CL =  1.8510
      Cm = -0.2484     CD =  0.01992   =>   CDf =  0.00553    CDp =  0.01439

 Side 1  free  transition at x/c =  0.4786   66
 Side 2  free  transition at x/c =  0.3772   37

   4   rms: 0.6787E-01   max: -.6553E+00   D at   38  2   RLX: 0.763
       a =  8.000      CL =  1.8679
      Cm = -0.2539     CD =  0.02029   =>   CDf =  0.00676    CDp =  0.01353

 Side 1  free  transition at x/c =  0.4784   66
 Side 2  free  transition at x/c =  0.3880   37

   5   rms: 0.4535E-01   max: -.5413E+00   D at   38  2   RLX: 0.924
       a =  8.000      CL =  1.8707
      Cm = -0.2549     CD =  0.02023   =>   CDf =  0.00665    CDp =  0.01358

 Side 1  free  transition at x/c =  0.4784   66
 Side 2  free  transition at x/c =  0.3983   38

   6   rms: 0.3925E-02   max: -.6608E-01   D at   37  2
       a =  8.000      CL =  1.8716
      Cm = -0.2552     CD =  0.02015   =>   CDf =  0.00661    CDp =  0.01354

 Side 1  free  transition at x/c =  0.4783   66
 Side 2  free  transition at x/c =  0.3982   38

   7   rms: 0.4573E-03   max: 0.4539E-02   D at   38  2
       a =  8.000      CL =  1.8716
      Cm = -0.2552     CD =  0.02015   =>   CDf =  0.00659    CDp =  0.01356

 Side 1  free  transition at x/c =  0.4783   66
 Side 2  free  transition at x/c =  0.3980   38

   8   rms: 0.2221E-05   max: -.3344E-04   D at   39  2
       a =  8.000      CL =  1.8716
      Cm = -0.2552     CD =  0.02015   =>   CDf =  0.00659    CDp =  0.01356

 Point added to stored polar  1
 Point written to save file  000081M0.04.log                                 
 Dump file unspecified or not available
 Calculating wake trajectory ...
 Calculating source influence matrix ...

 Solving BL system ...

 Side 1  free  transition at x/c =  0.4783   66
 Side 2  free  transition at x/c =  0.3980   38

   1   rms: 0.1497E+00   max: -.9304E+00   T at   38  2   RLX: 0.537
       a =  9.000      CL =  1.8926
      Cm = -0.2477     CD =  0.02096   =>   CDf =  0.00635    CDp =  0.01460

 Side 1  free  transition at x/c =  0.4585   66
 Side 2  free  transition at x/c =  0.4186   38

   2   rms: 0.1678E+00   max: -.1238E+01   T at   38  2   RLX: 0.404
       a =  9.000      CL =  1.9085
      Cm = -0.2469     CD =  0.02205   =>   CDf =  0.00662    CDp =  0.01543

 Side 1  free  transition at x/c =  0.4523   66
 Side 2  free  transition at x/c =  0.4345   38

   3   rms: 0.5356E-01   max: -.3634E+00   T at   38  2
       a =  9.000      CL =  1.9297
      Cm = -0.2451     CD =  0.02228   =>   CDf =  0.00644    CDp =  0.01583

 Side 1  free  transition at x/c =  0.4424   66
 Side 2  free  transition at x/c =  0.4561   39

   4   rms: 0.1702E-01   max: -.2288E+00   D at   39  2
       a =  9.000      CL =  1.9300
      Cm = -0.2452     CD =  0.02231   =>   CDf =  0.00639    CDp =  0.01592

 Side 1  free  transition at x/c =  0.4436   66
 Side 2  free  transition at x/c =  0.4520   39

   5   rms: 0.7357E-03   max: 0.7473E-02   C at   39  2
       a =  9.000      CL =  1.9303
      Cm = -0.2452     CD =  0.02232   =>   CDf =  0.00631    CDp =  0.01600

 Side 1  free  transition at x/c =  0.4436   66
 Side 2  free  transition at x/c =  0.4518   39

   6   rms: 0.8354E-05   max: -.3522E-04   D at   41  2
       a =  9.000      CL =  1.9303
      Cm = -0.2452     CD =  0.02232   =>   CDf =  0.00632    CDp =  0.01600

 Point added to stored polar  1
 Point written to save file  000081M0.04.log                                 
 Dump file unspecified or not available
 Calculating wake trajectory ...
 Calculating source influence matrix ...

 Solving BL system ...

 Side 1  free  transition at x/c =  0.4436   66
 Side 2  free  transition at x/c =  0.4518   39

   1   rms: 0.1468E+00   max: -.9048E+00   T at   39  2   RLX: 0.553
       a = 10.000      CL =  1.9596
      Cm = -0.2395     CD =  0.02399   =>   CDf =  0.00606    CDp =  0.01793

 Side 1  free  transition at x/c =  0.4207   65
 Side 2  free  transition at x/c =  0.4880   40

   2   rms: 0.8419E-01   max: -.6416E+00   C at   40  2   RLX: 0.779
       a = 10.000      CL =  1.9751
      Cm = -0.2358     CD =  0.02502   =>   CDf =  0.00625    CDp =  0.01876

 Side 1  free  transition at x/c =  0.4036   65
 Side 2  free  transition at x/c =  0.5126   41

   3   rms: 0.3447E-01   max: -.3227E+00   T at   41  2
       a = 10.000      CL =  1.9775
      Cm = -0.2347     CD =  0.02579   =>   CDf =  0.00618    CDp =  0.01960

 Side 1  free  transition at x/c =  0.4013   64
 Side 2  free  transition at x/c =  0.5425   42

   4   rms: 0.6685E-02   max: 0.9570E-01   C at   42  2
       a = 10.000      CL =  1.9780
      Cm = -0.2348     CD =  0.02575   =>   CDf =  0.00604    CDp =  0.01971

 Side 1  free  transition at x/c =  0.4010   64
 Side 2  free  transition at x/c =  0.5423   42

   5   rms: 0.6388E-03   max: 0.1100E-01   C at   42  2
       a = 10.000      CL =  1.9780
      Cm = -0.2348     CD =  0.02575   =>   CDf =  0.00604    CDp =  0.01971

 Side 1  free  transition at x/c =  0.4010   64
 Side 2  free  transition at x/c =  0.5419   42

   6   rms: 0.3155E-05   max: -.3520E-04   D at   44  2
       a = 10.000      CL =  1.9780
      Cm = -0.2348     CD =  0.02575   =>   CDf =  0.00604    CDp =  0.01971

 Point added to stored polar  1
 Point written to save file  000081M0.04.log                                 
 Dump file unspecified or not available
 Calculating wake trajectory ...
 Calculating source influence matrix ...

 Solving BL system ...

 Side 1  free  transition at x/c =  0.4010   64
 Side 2  free  transition at x/c =  0.5419   42

   1   rms: 0.1653E+00   max: -.1548E+01   C at   42  2   RLX: 0.323
       a = 11.000      CL =  1.9963
      Cm = -0.2322     CD =  0.02685   =>   CDf =  0.00577    CDp =  0.02107

 Side 1  free  transition at x/c =  0.3787   64
 Side 2  free  transition at x/c =  0.5928   44

   2   rms: 0.3546E+00   max: 0.4922E+01   D at    2  1   RLX: 0.139
       a = 11.000      CL =  2.0001
      Cm = -0.2318     CD =  0.02734   =>   CDf =  0.00604    CDp =  0.02131

 MRCHDU: Convergence failed at  64  side 1    Res =  0.6724E-05
 Side 1  free  transition at x/c =  0.3730   64
 Side 2  free  transition at x/c =  0.6049   44

   3   rms: 0.9909E-01   max: -.7916E+00   T at   44  2   RLX: 0.632
       a = 11.000      CL =  2.0072
      Cm = -0.2268     CD =  0.02963   =>   CDf =  0.00602    CDp =  0.02361

 Side 1  free  transition at x/c =  0.3480   63
 Side 2 forced transition at x/c =  1.0001   66

   4   rms: 0.6032E-01   max: 0.6548E+00   D at   44  2
       a = 11.000      CL =  1.9954
      Cm = -0.2215     CD =  0.03136   =>   CDf =  0.00573    CDp =  0.02563

 Side 1  free  transition at x/c =  0.3396   62
 Side 2 forced transition at x/c =  1.0001   66

   5   rms: 0.7263E-02   max: 0.6228E-01   D at   45  2
       a = 11.000      CL =  1.9962
      Cm = -0.2216     CD =  0.03125   =>   CDf =  0.00567    CDp =  0.02558

 Side 1  free  transition at x/c =  0.3388   62
 Side 2 forced transition at x/c =  1.0001   66

   6   rms: 0.3923E-03   max: 0.2879E-02   D at   42  2
       a = 11.000      CL =  1.9962
      Cm = -0.2216     CD =  0.03124   =>   CDf =  0.00567    CDp =  0.02558

 Side 1  free  transition at x/c =  0.3387   62
 Side 2 forced transition at x/c =  1.0001   66

   7   rms: 0.3339E-05   max: 0.3247E-04   C at   66  2
       a = 11.000      CL =  1.9962
      Cm = -0.2216     CD =  0.03124   =>   CDf =  0.00567    CDp =  0.02558

 Point added to stored polar  1
 Point written to save file  000081M0.04.log                                 
 Dump file unspecified or not available
 Calculating wake trajectory ...
 Calculating source influence matrix ...

 Solving BL system ...

 Side 1  free  transition at x/c =  0.3387   62
 Side 2 forced transition at x/c =  1.0001   66

   1   rms: 0.1666E+00   max: 0.1465E+01   C at   62  1   RLX: 0.765
       a = 12.000      CL =  2.0018
      Cm = -0.2120     CD =  0.03741   =>   CDf =  0.00539    CDp =  0.03203

 Side 1  free  transition at x/c =  0.2416   58
 Side 2 forced transition at x/c =  1.0001   65

   2   rms: 0.6732E-01   max: 0.4764E+00   D at   87  1
       a = 12.000      CL =  1.9593
      Cm = -0.2062     CD =  0.04391   =>   CDf =  0.00669    CDp =  0.03723

 Side 1  free  transition at x/c =  0.2313   56
 Side 2 forced transition at x/c =  1.0001   66

   3   rms: 0.8880E-02   max: 0.1079E+00   D at   84  1
       a = 12.000      CL =  1.9566
      Cm = -0.2063     CD =  0.04419   =>   CDf =  0.00621    CDp =  0.03798

 Side 1  free  transition at x/c =  0.2327   56
 Side 2 forced transition at x/c =  1.0001   66

   4   rms: 0.5823E-03   max: 0.7998E-02   D at   78  2
       a = 12.000      CL =  1.9566
      Cm = -0.2063     CD =  0.04411   =>   CDf =  0.00618    CDp =  0.03793

 Side 1  free  transition at x/c =  0.2327   56
 Side 2 forced transition at x/c =  1.0001   66

   5   rms: 0.7876E-05   max: 0.9603E-04   C at   56  1
       a = 12.000      CL =  1.9566
      Cm = -0.2063     CD =  0.04411   =>   CDf =  0.00618    CDp =  0.03793

 Point added to stored polar  1
 Point written to save file  000081M0.04.log                                 
 Dump file unspecified or not available
 Calculating wake trajectory ...
 Calculating source influence matrix ...

 Solving BL system ...

 Side 1  free  transition at x/c =  0.2327   56
 Side 2 forced transition at x/c =  1.0001   66

   1   rms: 0.2624E+00   max: 0.4165E+01   C at   56  1   RLX: 0.360
       a = 13.000      CL =  1.9311
      Cm = -0.2011     CD =  0.05095   =>   CDf =  0.00588    CDp =  0.04507

 Side 1  free  transition at x/c =  0.1828   54
 Side 2 forced transition at x/c =  1.0001   65

   2   rms: 0.1594E+00   max: 0.2217E+01   C at   54  1   RLX: 0.677
       a = 13.000      CL =  1.8963
      Cm = -0.1964     CD =  0.06049   =>   CDf =  0.00652    CDp =  0.05396

 Side 1  free  transition at x/c =  0.1434   51
 Side 2 forced transition at x/c =  1.0001   65

   3   rms: 0.5150E-01   max: 0.5548E+00   C at   51  1
       a = 13.000      CL =  1.8808
      Cm = -0.1945     CD =  0.06496   =>   CDf =  0.00670    CDp =  0.05826

 Side 1  free  transition at x/c =  0.1277   50
 Side 2 forced transition at x/c =  1.0001   65

   4   rms: 0.5482E-02   max: -.6732E-01   C at   50  1
       a = 13.000      CL =  1.8791
      Cm = -0.1944     CD =  0.06460   =>   CDf =  0.00675    CDp =  0.05785

 Side 1  free  transition at x/c =  0.1289   50
 Side 2 forced transition at x/c =  1.0001   65

   5   rms: 0.2418E-03   max: -.3044E-02   D at   80  1
       a = 13.000      CL =  1.8792
      Cm = -0.1943     CD =  0.06454   =>   CDf =  0.00671    CDp =  0.05783

 Side 1  free  transition at x/c =  0.1289   50
 Side 2 forced transition at x/c =  1.0001   65

   6   rms: 0.1184E-04   max: 0.1520E-03   C at   50  1
       a = 13.000      CL =  1.8792
      Cm = -0.1944     CD =  0.06454   =>   CDf =  0.00671    CDp =  0.05783

 Point added to stored polar  1
 Point written to save file  000081M0.04.log                                 
 Dump file unspecified or not available
 Calculating wake trajectory ...
 Calculating source influence matrix ...

 Solving BL system ...

 Side 1  free  transition at x/c =  0.1289   50
 Side 2 forced transition at x/c =  1.0001   65

   1   rms: 0.2132E+00   max: 0.2972E+01   C at   50  1   RLX: 0.486
       a = 14.000      CL =  1.8500
      Cm = -0.1907     CD =  0.07556   =>   CDf =  0.00674    CDp =  0.06882

 Side 1  free  transition at x/c =  0.1062   48
 Side 2 forced transition at x/c =  1.0001   65

   2   rms: 0.9382E-01   max: 0.7477E+00   C at   48  1
       a = 14.000      CL =  1.8289
      Cm = -0.1884     CD =  0.08601   =>   CDf =  0.00679    CDp =  0.07922

 Side 1  free  transition at x/c =  0.0915   46
 Side 2 forced transition at x/c =  1.0001   65

   3   rms: 0.1962E-01   max: -.2288E+00   D at   48  1
       a = 14.000      CL =  1.8381
      Cm = -0.1885     CD =  0.08321   =>   CDf =  0.00675    CDp =  0.07646

 Side 1  free  transition at x/c =  0.0898   46
 Side 2 forced transition at x/c =  1.0001   65

   4   rms: 0.1786E-02   max: -.2243E-01   D at   48  1
       a = 14.000      CL =  1.8379
      Cm = -0.1885     CD =  0.08326   =>   CDf =  0.00678    CDp =  0.07648

 Side 1  free  transition at x/c =  0.0895   46
 Side 2 forced transition at x/c =  1.0001   65

   5   rms: 0.9210E-04   max: 0.5349E-03   D at   80  2
       a = 14.000      CL =  1.8378
      Cm = -0.1885     CD =  0.08325   =>   CDf =  0.00678    CDp =  0.07647

 Point added to stored polar  1
 Point written to save file  000081M0.04.log                                 
 Dump file unspecified or not available
 Calculating wake trajectory ...
 Calculating source influence matrix ...

 Solving BL system ...

 Side 1  free  transition at x/c =  0.0895   46
 Side 2 forced transition at x/c =  1.0001   65

   1   rms: 0.1395E+00   max: 0.1023E+01   C at   46  1   RLX: 0.435
       a = 15.000      CL =  1.8266
      Cm = -0.1870     CD =  0.09197   =>   CDf =  0.00681    CDp =  0.08516

 Side 1  free  transition at x/c =  0.0813   45
 Side 2 forced transition at x/c =  1.0001   65

   2   rms: 0.6902E-01   max: -.4026E+00   D at   45  1
       a = 15.000      CL =  1.8256
      Cm = -0.1856     CD =  0.10068   =>   CDf =  0.00636    CDp =  0.09432

 Side 1  free  transition at x/c =  0.0727   45
 Side 2 forced transition at x/c =  1.0001   64

   3   rms: 0.2490E-01   max: -.2949E+00   D at   45  1
       a = 15.000      CL =  1.8166
      Cm = -0.1858     CD =  0.10059   =>   CDf =  0.00673    CDp =  0.09385

 Side 1  free  transition at x/c =  0.0736   45
 Side 2 forced transition at x/c =  1.0001   64

   4   rms: 0.4226E-02   max: 0.4509E-01   C at   45  1
       a = 15.000      CL =  1.8174
      Cm = -0.1855     CD =  0.10010   =>   CDf =  0.00663    CDp =  0.09347

 Side 1  free  transition at x/c =  0.0731   45
 Side 2 forced transition at x/c =  1.0001   64

   5   rms: 0.1922E-03   max: -.1973E-02   D at   46  1
       a = 15.000      CL =  1.8173
      Cm = -0.1855     CD =  0.10019   =>   CDf =  0.00666    CDp =  0.09352

 Side 1  free  transition at x/c =  0.0730   45
 Side 2 forced transition at x/c =  1.0001   64

   6   rms: 0.1058E-04   max: -.8982E-04   C at   64  2
       a = 15.000      CL =  1.8173
      Cm = -0.1855     CD =  0.10019   =>   CDf =  0.00666    CDp =  0.09352

 Point added to stored polar  1
 Point written to save file  000081M0.04.log                                 
 Dump file unspecified or not available

.OPERva   c>  
 XFOIL   c>  
0.1
resp: 
 ===================================================
  XFOIL Version 6.97
  Copyright (C) 2000   Mark Drela, Harold Youngren

  This software comes with ABSOLUTELY NO WARRANTY,
    subject to the GNU General Public License.

  Caveat computor
 ===================================================

 File  xfoil.def  not found

   QUIT    Exit program

  .OPER    Direct operating point(s)
  .MDES    Complex mapping design routine
  .QDES    Surface speed design routine
  .GDES    Geometry design routine

   SAVE f  Write airfoil to labeled coordinate file
   PSAV f  Write airfoil to plain coordinate file
   ISAV f  Write airfoil to ISES coordinate file
   MSAV f  Write airfoil to MSES coordinate file
   REVE    Reverse written-airfoil node ordering
   DELI i  Change written-airfoil file delimiters

   LOAD f  Read buffer airfoil from coordinate file
   NACA i  Set NACA 4,5-digit airfoil and buffer airfoil
   INTE    Set buffer airfoil by interpolating two airfoils
   NORM    Buffer airfoil normalization toggle
   HALF    Halve the number of points in buffer airfoil
   XYCM rr Change CM reference location, currently  0.25000 0.00000

   BEND    Display structural properties of current airfoil

   PCOP    Set current-airfoil panel nodes directly from buffer airfoil points
   PANE    Set current-airfoil panel nodes ( 160 ) based on curvature
  .PPAR    Show/change paneling

  .PLOP    Plotting options

   WDEF f  Write  current-settings file
   RDEF f  Reread current-settings file
   NAME s  Specify new airfoil name
   NINC    Increment name version number

   Z       Zoom    | (available in all menus)
   U       Unzoom  | 

 XFOIL   c>   ...............................................

  G raphics-enable flag:        T
  S ize of plot object          10.00"
  A spect ratio of plot object   0.5500
  P age dimensions              11.00 x  8.50"
  M argins from page edges       0.00",  0.00"
  F ont size (relative)          0.0150
  W indow/screen size fraction   0.8000
  B lowup input method:        Cursor    
  O rientation of plot:        Landscape 
  C olor PostScript output?     F

      Option, Value   (or <Return>)    c>   ...............................................

  G raphics-enable flag:        F
  S ize of plot object          10.00"
  A spect ratio of plot object   0.5500
  P age dimensions              11.00 x  8.50"
  M argins from page edges       0.00",  0.00"
  F ont size (relative)          0.0150
  W indow/screen size fraction   0.8000
  B lowup input method:        Cursor    
  O rientation of plot:        Landscape 
  C olor PostScript output?     F

      Option, Value   (or <Return>)    c>  
 XFOIL   c>  
 Labeled airfoil file.  Name:  000081                                          

 Number of input coordinate points: 200
 Clockwise ordering
 Max thickness =     0.163801  at x =   0.194
 Max camber    =     0.081114  at x =   0.547

  LE  x,y  =  -0.00000  -0.00052  |   Chord =   0.99988
  TE  x,y  =   0.99988   0.00006  |

 Current airfoil nodes set from buffer airfoil nodes ( 200 )

 XFOIL   c>  
 You are working with the buffer airfoil

.GDES   c>  
  i       x        y      angle
   2   0.9990   0.0005    0.053
   3   0.9978   0.0011    0.076
   4   0.9961   0.0019    0.119
   5   0.9938   0.0029    0.146
   6   0.9911   0.0042    0.184
   7   0.9880   0.0056    0.191
   8   0.9843   0.0073    0.221
   9   0.9801   0.0092    0.246
  10   0.9755   0.0113    0.274
  11   0.9704   0.0135    0.288
  12   0.9649   0.0159    0.307
  13   0.9589   0.0185    0.333
  14   0.9524   0.0213    0.349
  15   0.9455   0.0241    0.357
  16   0.9382   0.0271    0.383
  17   0.9304   0.0303    0.382
  18   0.9222   0.0335    0.404
  19   0.9135   0.0368    0.405
  20   0.9045   0.0402    0.416
  21   0.8951   0.0437    0.428
  22   0.8853   0.0472    0.423
  23   0.8751   0.0508    0.433
  24   0.8645   0.0544    0.434
  25   0.8536   0.0581    0.438
  26   0.8423   0.0618    0.437
  27   0.8307   0.0655    0.440
  28   0.8187   0.0692    0.441
  29   0.8065   0.0729    0.437
  30   0.7939   0.0766    0.444
  31   0.7810   0.0802    0.441
  32   0.7679   0.0838    0.445
  33   0.7545   0.0874    0.450
  34   0.7409   0.0910    0.449
  35   0.7270   0.0945    0.456
  36   0.7129   0.0979    0.463
  37   0.6986   0.1012    0.468
  38   0.6841   0.1045    0.479
  39   0.6694   0.1077    0.489
  40   0.6545   0.1108    0.504
  41   0.6395   0.1138    0.516
  42   0.6243   0.1166    0.534
  43   0.6091   0.1194    0.551
  44   0.5937   0.1220    0.572
  45   0.5782   0.1245    0.591
  46   0.5627   0.1268    0.616
  47   0.5471   0.1289    0.641
  48   0.5314   0.1309    0.662
  49   0.5157   0.1327    0.698
  50   0.5000   0.1343    0.719
  51   0.4843   0.1358    0.749
  52   0.4686   0.1370    0.781
  53   0.4529   0.1379    0.805
  54   0.4373   0.1387    0.838
  55   0.4218   0.1392    0.867
  56   0.4063   0.1395    0.891
  57   0.3909   0.1396    0.921
  58   0.3757   0.1394    0.943
  59   0.3605   0.1390    0.964
  60   0.3455   0.1383    0.995
  61   0.3306   0.1373    1.003
  62   0.3159   0.1362    1.028
  63   0.3014   0.1347    1.038
  64   0.2871   0.1330    1.050
  65   0.2730   0.1311    1.060
  66   0.2591   0.1290    1.071
  67   0.2455   0.1266    1.067
  68   0.2321   0.1240    1.076
  69   0.2190   0.1212    1.075
  70   0.2061   0.1182    1.070
  71   0.1935   0.1151    1.069
  72   0.1813   0.1117    1.068
  73   0.1693   0.1082    1.063
  74   0.1577   0.1046    1.062
  75   0.1464   0.1009    1.064
  76   0.1355   0.0970    1.062
  77   0.1249   0.0930    1.066
  78   0.1147   0.0890    1.084
  79   0.1049   0.0849    1.100
  80   0.0955   0.0807    1.119
  81   0.0865   0.0765    1.161
  82   0.0778   0.0723    1.199
  83   0.0696   0.0681    1.271
  84   0.0618   0.0638    1.342
  85   0.0545   0.0596    1.445
  86   0.0476   0.0554    1.575
  87   0.0411   0.0512    1.729
  88   0.0351   0.0471    1.917
  89   0.0296   0.0430    2.160
  90   0.0245   0.0389    2.448
  91   0.0199   0.0348    2.805
  92   0.0157   0.0308    3.228
  93   0.0120   0.0269    3.704
  94   0.0089   0.0230    4.311
  95   0.0062   0.0191    4.933
  96   0.0039   0.0152    5.624
  97   0.0022   0.0114    6.319
  98   0.0010   0.0076    6.887
  99   0.0002   0.0038    7.300
 100   0.0000   0.0000    6.326
 101   0.0002  -0.0054    5.198
 102   0.0010  -0.0108    5.226
 103   0.0022  -0.0162    5.287
 104   0.0039  -0.0214    5.334
 105   0.0062  -0.0264    5.382
 106   0.0089  -0.0313    5.433
 107   0.0120  -0.0360    5.426
 108   0.0157  -0.0403    5.415
 109   0.0199  -0.0444    5.324
 110   0.0245  -0.0482    5.191
 111   0.0296  -0.0517    5.009
 112   0.0351  -0.0548    4.783
 113   0.0411  -0.0575    4.507
 114   0.0476  -0.0598    4.208
 115   0.0545  -0.0618    3.891
 116   0.0618  -0.0633    3.570
 117   0.0696  -0.0644    3.247
 118   0.0778  -0.0652    2.940
 119   0.0865  -0.0655    2.641
 120   0.0955  -0.0654    2.353
 121   0.1049  -0.0649    2.100
 122   0.1147  -0.0640    1.846
 123   0.1249  -0.0628    1.618
 124   0.1355  -0.0612    1.415
 125   0.1464  -0.0593    1.218
 126   0.1577  -0.0571    1.041
 127   0.1693  -0.0545    0.875
 128   0.1813  -0.0518    0.730
 129   0.1935  -0.0488    0.590
 130   0.2061  -0.0455    0.457
 131   0.2190  -0.0421    0.347
 132   0.2321  -0.0386    0.237
 133   0.2455  -0.0349    0.138
 134   0.2591  -0.0311    0.048
 135   0.2730  -0.0272   -0.035
 136   0.2871  -0.0232   -0.111
 137   0.3014  -0.0193   -0.181
 138   0.3159  -0.0153   -0.245
 139   0.3306  -0.0114   -0.296
 140   0.3455  -0.0074   -0.357
 141   0.3605  -0.0036   -0.393
 142   0.3757   0.0002   -0.444
 143   0.3909   0.0039   -0.476
 144   0.4063   0.0075   -0.509
 145   0.4218   0.0109   -0.538
 146   0.4373   0.0142   -0.561
 147   0.4529   0.0174   -0.586
 148   0.4686   0.0204   -0.600
 149   0.4843   0.0233   -0.618
 150   0.5000   0.0259   -0.632
 151   0.5157   0.0284   -0.641
 152   0.5314   0.0307   -0.654
 153   0.5471   0.0329   -0.652
 154   0.5627   0.0348   -0.669
 155   0.5782   0.0366   -0.668
 156   0.5937   0.0381   -0.674
 157   0.6091   0.0395   -0.676
 158   0.6243   0.0407   -0.683
 159   0.6395   0.0417   -0.684
 160   0.6545   0.0425   -0.689
 161   0.6694   0.0431   -0.690
 162   0.6841   0.0435   -0.690
 163   0.6986   0.0437   -0.699
 164   0.7129   0.0438   -0.703
 165   0.7270   0.0437   -0.700
 166   0.7409   0.0434   -0.704
 167   0.7545   0.0430   -0.709
 168   0.7679   0.0424   -0.713
 169   0.7810   0.0416   -0.719
 170   0.7939   0.0408   -0.708
 171   0.8065   0.0397   -0.723
 172   0.8187   0.0386   -0.716
 173   0.8307   0.0373   -0.711
 174   0.8423   0.0359   -0.718
 175   0.8536   0.0344   -0.710
 176   0.8645   0.0328   -0.705
 177   0.8751   0.0311   -0.698
 178   0.8853   0.0294   -0.689
 179   0.8951   0.0276   -0.677
 180   0.9045   0.0258   -0.668
 181   0.9135   0.0239   -0.645
 182   0.9222   0.0220   -0.633
 183   0.9304   0.0201   -0.620
 184   0.9382   0.0182   -0.584
 185   0.9455   0.0164   -0.567
 186   0.9524   0.0146   -0.537
 187   0.9589   0.0128   -0.518
 188   0.9649   0.0111   -0.475
 189   0.9704   0.0095   -0.450
 190   0.9755   0.0080   -0.408
 191   0.9801   0.0065   -0.380
 192   0.9843   0.0052   -0.342
 193   0.9880   0.0040   -0.287
 194   0.9911   0.0030   -0.273
 195   0.9938   0.0021   -0.213
 196   0.9961   0.0014   -0.174
 197   0.9978   0.0008   -0.146
 198   0.9990   0.0003   -0.065
 199   0.9998   0.0001    0.024

 Maximum panel corner angle =  7.300   at  i,x,y  =  99   0.0002   0.0038

 Enter corner angle criterion for refinement (deg):   3.650
 Enter type of spline parameter (1=uniform, 2=arclength):   1
 Enter refinement x limits:  -0.10000   1.10000
 Number of points added:           46
 Max thickness =     0.163822  at x =   0.194
 Max camber    =     0.080881  at x =   0.547

 Maximum panel corner angle =  3.247   at  i,x,y  = 163   0.0696  -0.0644

.GDES   c>  
 Buffer airfoil is not identical to current airfoil

 XFOIL   c>  
 Blunt trailing edge.  Gap =  0.00027

 Paneling parameters used...
   Number of panel nodes       160
   Panel bunching parameter    1.000
   TE/LE panel density ratio   0.150
   Refined-area/LE panel density ratio    0.200
   Top    side refined area x/c limits  1.000 1.000
   Bottom side refined area x/c limits  1.000 1.000

 XFOIL   c>  
.OPERi   c>   Current iteration limit:          20

Enter new iteration limit   i>  
Enter new iteration limit   i>  
Enter new iteration limit   i>  
.OPERi   c>  
 M  =    0.0000
 Re =  0.3000E+06

.OPERv   c>  
 Sonic Cp =    -66.86      Sonic Q/Qinf =     9.138


.OPERv   c>  
 Polar  1 newly created for accumulation
 Airfoil archived with polar: 000081                                          

Enter  polar save filename  OR  <return> for no file   s>  
 New polar save file available

Enter  polar dump filename  OR  <return> for no file   s>  
 Polar dump file will NOT be written

 Polar accumulation enabled

.OPERva   c>   Calculating unit vorticity distributions ...
 Calculating wake trajectory ...
 Calculating source influence matrix ...

 Solving BL system ...

 Initializing BL ...
    side            1  ...
 MRCHUE: Inverse mode at  58     Hk =   4.106
 MRCHUE: Inverse mode at  59     Hk =   4.921
 MRCHUE: Inverse mode at  60     Hk =   5.721
 MRCHUE: Inverse mode at  61     Hk =   6.511
 MRCHUE: Inverse mode at  62     Hk =   7.296
 MRCHUE: Inverse mode at  63     Hk =   8.076
 MRCHUE: Inverse mode at  64     Hk =   8.854
 MRCHUE: Inverse mode at  65     Hk =   7.832
 MRCHUE: Inverse mode at  66     Hk =   4.813
 MRCHUE: Inverse mode at  67     Hk =   3.086
 MRCHUE: Inverse mode at  86     Hk =   2.500
    side            2  ...
 MRCHUE: Inverse mode at  30     Hk =   4.160
 MRCHUE: Inverse mode at  31     Hk =   4.937
 MRCHUE: Inverse mode at  32     Hk =   5.733
 MRCHUE: Inverse mode at  33     Hk =   6.558
 MRCHUE: Inverse mode at  34     Hk =   7.420
 MRCHUE: Inverse mode at  35     Hk =   8.327
 MRCHUE: Inverse mode at  36     Hk =   9.280
 MRCHUE: Inverse mode at  37     Hk =   7.571
 MRCHUE: Inverse mode at  38     Hk =   3.897
 MRCHUE: Inverse mode at  39     Hk =   2.500

 Side 1  free  transition at x/c =  0.5965   65
 Side 2  free  transition at x/c =  0.2394   37

   1   rms: 0.1471E+00   max: -.7826E+00   T at   65  1   RLX: 0.639
       a =  2.000      CL =  1.3297
      Cm = -0.2871     CD =  0.01671   =>   CDf =  0.00746    CDp =  0.00925

 MRCHDU: Convergence failed at  67  side 1    Res =  0.1795E+01
 Side 1  free  transition at x/c =  0.6214   66
 Side 2  free  transition at x/c =  0.2270   36

   2   rms: 0.7490E-01   max: 0.3760E+00   T at   67  1
       a =  2.000      CL =  1.2844
      Cm = -0.2764     CD =  0.01585   =>   CDf =  0.00734    CDp =  0.00851

 Side 1  free  transition at x/c =  0.6390   66
 Side 2  free  transition at x/c =  0.2206   37

   3   rms: 0.3441E-01   max: 0.2753E+00   D at   66  1
       a =  2.000      CL =  1.2713
      Cm = -0.2736     CD =  0.01532   =>   CDf =  0.00691    CDp =  0.00841

 Side 1  free  transition at x/c =  0.6368   66
 Side 2  free  transition at x/c =  0.2197   37

   4   rms: 0.5542E-02   max: -.4600E-01   D at   85  1
       a =  2.000      CL =  1.2690
      Cm = -0.2731     CD =  0.01539   =>   CDf =  0.00702    CDp =  0.00837

 Side 1  free  transition at x/c =  0.6356   66
 Side 2  free  transition at x/c =  0.2193   37

   5   rms: 0.2366E-03   max: -.2794E-02   D at   85  1
       a =  2.000      CL =  1.2689
      Cm = -0.2731     CD =  0.01540   =>   CDf =  0.00704    CDp =  0.00835

 Side 1  free  transition at x/c =  0.6355   66
 Side 2  free  transition at x/c =  0.2193   37

   6   rms: 0.2211E-05   max: -.1142E-04   D at   55  2
       a =  2.000      CL =  1.2689
      Cm = -0.2731     CD =  0.01540   =>   CDf =  0.00704    CDp =  0.00835

 Point added to stored polar  1
 Point written to save file  000081M0.1.log                                  
 Dump file unspecified or not available
 Calculating wake trajectory ...
 Calculating source influence matrix ...

 Solving BL system ...

 Side 1  free  transition at x/c =  0.6355   66
 Side 2  free  transition at x/c =  0.2193   37

   1   rms: 0.1448E+00   max: -.7650E+00   T at   37  2   RLX: 0.654
       a =  3.000      CL =  1.3439
      Cm = -0.2728     CD =  0.01567   =>   CDf =  0.00687    CDp =  0.00880

 Side 1  free  transition at x/c =  0.6204   66
 Side 2  free  transition at x/c =  0.2302   37

   2   rms: 0.1178E+00   max: -.7054E+00   T at   37  2   RLX: 0.709
       a =  3.000      CL =  1.3762
      Cm = -0.2738     CD =  0.01552   =>   CDf =  0.00698    CDp =  0.00854

 Side 1  free  transition at x/c =  0.6145   67
 Side 2  free  transition at x/c =  0.2393   36

   3   rms: 0.4257E-01   max: -.2089E+00   D at   38  2
       a =  3.000      CL =  1.3860
      Cm = -0.2732     CD =  0.01579   =>   CDf =  0.00701    CDp =  0.00878

 Side 1  free  transition at x/c =  0.6125   67
 Side 2  free  transition at x/c =  0.2397   36

   4   rms: 0.1624E-02   max: 0.1618E-01   D at   37  2
       a =  3.000      CL =  1.3856
      Cm = -0.2731     CD =  0.01581   =>   CDf =  0.00705    CDp =  0.00876

 Side 1  free  transition at x/c =  0.6125   67
 Side 2  free  transition at x/c =  0.2393   36

   5   rms: 0.1279E-04   max: -.9440E-04   D at   36  2
       a =  3.000      CL =  1.3856
      Cm = -0.2731     CD =  0.01581   =>   CDf =  0.00705    CDp =  0.00876

 Point added to stored polar  1
 Point written to save file  000081M0.1.log                                  
 Dump file unspecified or not available
 Calculating wake trajectory ...
 Calculating source influence matrix ...

 Solving BL system ...

 Side 1  free  transition at x/c =  0.6125   67
 Side 2  free  transition at x/c =  0.2393   36

   1   rms: 0.1460E+00   max: -.7814E+00   T at   36  2   RLX: 0.640
       a =  4.000      CL =  1.4588
      Cm = -0.2727     CD =  0.01614   =>   CDf =  0.00686    CDp =  0.00929

 Side 1  free  transition at x/c =  0.5989   67
 Side 2  free  transition at x/c =  0.2541   36

   2   rms: 0.5452E-01   max: 0.3280E+00   D at   36  2
       a =  4.000      CL =  1.4977
      Cm = -0.2722     CD =  0.01636   =>   CDf =  0.00712    CDp =  0.00924

 Side 1  free  transition at x/c =  0.5896   67
 Side 2  free  transition at x/c =  0.2611   36

   3   rms: 0.1736E-01   max: -.1306E+00   D at   36  2
       a =  4.000      CL =  1.4998
      Cm = -0.2725     CD =  0.01639   =>   CDf =  0.00703    CDp =  0.00936

 Side 1  free  transition at x/c =  0.5903   67
 Side 2  free  transition at x/c =  0.2625   36

   4   rms: 0.3212E-03   max: 0.3257E-02   D at   37  2
       a =  4.000      CL =  1.4998
      Cm = -0.2725     CD =  0.01639   =>   CDf =  0.00702    CDp =  0.00937

 Side 1  free  transition at x/c =  0.5903   67
 Side 2  free  transition at x/c =  0.2624   36

   5   rms: 0.1249E-05   max: 0.5737E-05   D at   47  2
       a =  4.000      CL =  1.4998
      Cm = -0.2725     CD =  0.01639   =>   CDf =  0.00702    CDp =  0.00937

 Point added to stored polar  1
 Point written to save file  000081M0.1.log                                  
 Dump file unspecified or not available
 Calculating wake trajectory ...
 Calculating source influence matrix ...

 Solving BL system ...

 Side 1  free  transition at x/c =  0.5903   67
 Side 2  free  transition at x/c =  0.2624   36

   1   rms: 0.1476E+00   max: -.8166E+00   T at   36  2   RLX: 0.612
       a =  5.000      CL =  1.5689
      Cm = -0.2719     CD =  0.01679   =>   CDf =  0.00681    CDp =  0.00998

 Side 1  free  transition at x/c =  0.5780   67
 Side 2  free  transition at x/c =  0.2825   36

   2   rms: 0.6673E-01   max: 0.7232E+00   D at   36  2
       a =  5.000      CL =  1.6087
      Cm = -0.2710     CD =  0.01708   =>   CDf =  0.00679    CDp =  0.01030

 Side 1  free  transition at x/c =  0.5676   68
 Side 2  free  transition at x/c =  0.2881   35

   3   rms: 0.9494E-02   max: -.7257E-01   D at   68  1
       a =  5.000      CL =  1.6110
      Cm = -0.2713     CD =  0.01714   =>   CDf =  0.00700    CDp =  0.01015

 Side 1  free  transition at x/c =  0.5686   68
 Side 2  free  transition at x/c =  0.2882   35

   4   rms: 0.2147E-03   max: 0.1863E-02   D at    4  1
       a =  5.000      CL =  1.6110
      Cm = -0.2713     CD =  0.01715   =>   CDf =  0.00696    CDp =  0.01018

 Side 1  free  transition at x/c =  0.5686   68
 Side 2  free  transition at x/c =  0.2882   35

   5   rms: 0.1358E-05   max: -.7951E-05   D at    4  1
       a =  5.000      CL =  1.6110
      Cm = -0.2713     CD =  0.01715   =>   CDf =  0.00696    CDp =  0.01018

 Point added to stored polar  1
 Point written to save file  000081M0.1.log                                  
 Dump file unspecified or not available
 Calculating wake trajectory ...
 Calculating source influence matrix ...

 Solving BL system ...

 Side 1  free  transition at x/c =  0.5686   68
 Side 2  free  transition at x/c =  0.2882   35

   1   rms: 0.1501E+00   max: -.9939E+00   T at   35  2   RLX: 0.503
       a =  6.000      CL =  1.6660
      Cm = -0.2704     CD =  0.01764   =>   CDf =  0.00698    CDp =  0.01066

 MRCHDU: Convergence failed at  37  side 2    Res =  0.1769E+02
 MRCHDU: Convergence failed at  38  side 2    Res =  0.3177E+01
 MRCHDU: Convergence failed at  39  side 2    Res =  0.3574E+01
 MRCHDU: Convergence failed at  40  side 2    Res =  0.6911E+01
 MRCHDU: Convergence failed at  41  side 2    Res =  0.1151E+02
 MRCHDU: Convergence failed at  42  side 2    Res =  0.1811E+02
 MRCHDU: Convergence failed at  43  side 2    Res =  0.2400E+02
 MRCHDU: Convergence failed at  44  side 2    Res =  0.2707E+02
 MRCHDU: Convergence failed at  45  side 2    Res =  0.2743E+02
 MRCHDU: Convergence failed at  46  side 2    Res =  0.2265E+02
 MRCHDU: Convergence failed at  47  side 2    Res =  0.2068E+02
 MRCHDU: Convergence failed at  48  side 2    Res =  0.1881E+02
 MRCHDU: Convergence failed at  49  side 2    Res =  0.1552E+02
 MRCHDU: Convergence failed at  50  side 2    Res =  0.1439E+02
 MRCHDU: Convergence failed at  51  side 2    Res =  0.1233E+02
 MRCHDU: Convergence failed at  52  side 2    Res =  0.9907E+01
 MRCHDU: Convergence failed at  53  side 2    Res =  0.9475E+01
 MRCHDU: Convergence failed at  54  side 2    Res =  0.8383E+01
 MRCHDU: Convergence failed at  55  side 2    Res =  0.8083E+01
 MRCHDU: Convergence failed at  56  side 2    Res =  0.7805E+01
 MRCHDU: Convergence failed at  57  side 2    Res =  0.9660E+04
 MRCHDU: Convergence failed at  58  side 2    Res =  0.1595E+04
 MRCHDU: Convergence failed at  59  side 2    Res =  0.5308E+03
 MRCHDU: Convergence failed at  60  side 2    Res =  0.2512E+03
 MRCHDU: Convergence failed at  61  side 2    Res =  0.1403E+03
 MRCHDU: Convergence failed at  62  side 2    Res =  0.8815E+02
 MRCHDU: Convergence failed at  63  side 2    Res =  0.5832E+02
 MRCHDU: Convergence failed at  64  side 2    Res =  0.4048E+02
 MRCHDU: Convergence failed at  65  side 2    Res =  0.2875E+02
 MRCHDU: Convergence failed at  66  side 2    Res =  0.2082E+02
 MRCHDU: Convergence failed at  67  side 2    Res =  0.1516E+02
 MRCHDU: Convergence failed at  68  side 2    Res =  0.1128E+02
 MRCHDU: Convergence failed at  69  side 2    Res =  0.9124E+01
 MRCHDU: Convergence failed at  70  side 2    Res =  0.1246E+02
 Side 1  free  transition at x/c =  0.5588   67
 Side 2  free  transition at x/c =  0.3080   36

   2   rms: 0.3151E+00   max: 0.1718E+01   T at   36  2   RLX: 0.489
       a =  6.000      CL =  1.5736
      Cm = -0.2299     CD =  0.01690   =>   CDf =  0.00532    CDp =  0.01158

 Side 1  free  transition at x/c =  0.5540   67
 Side 2  free  transition at x/c =  0.2875   35

   3   rms: 0.5350E+00   max: -.6055E+01   T at   35  2   RLX: 0.083
       a =  6.000      CL =  1.6488
      Cm = -0.2554     CD =  0.02313   =>   CDf =  0.00558    CDp =  0.01755

 MRCHDU: Convergence failed at  36  side 2    Res =  0.4341E+02
 MRCHDU: Convergence failed at  37  side 2    Res =  0.5470E+00
 MRCHDU: Convergence failed at  38  side 2    Res =  0.2272E+03
 MRCHDU: Convergence failed at  39  side 2    Res =  0.2063E+02
 MRCHDU: Convergence failed at  40  side 2    Res =  0.2778E+02
 MRCHDU: Convergence failed at  41  side 2    Res =  0.2509E+03
 MRCHDU: Convergence failed at  42  side 2    Res =  0.3466E+02
 MRCHDU: Convergence failed at  43  side 2    Res =  0.1697E+02
 MRCHDU: Convergence failed at  44  side 2    Res =  0.1105E+02
 MRCHDU: Convergence failed at  45  side 2    Res =  0.7488E+01
 MRCHDU: Convergence failed at  46  side 2    Res =  0.7322E+01
 MRCHDU: Convergence failed at  47  side 2    Res =  0.4998E+01
 Side 1  free  transition at x/c =  0.5534   67
 Side 2  free  transition at x/c =  0.3020   36

   4   rms: 0.2981E+00   max: -.1301E+01   D at   68  2   RLX: 0.384
       a =  6.000      CL =  1.6552
      Cm = -0.2566     CD =  0.01922   =>   CDf =  0.00527    CDp =  0.01395

 MRCHDU: Convergence failed at  45  side 2    Res =  0.5437E-01
 Side 1  free  transition at x/c =  0.5501   68
 Side 2  free  transition at x/c =  0.3072   35

   5   rms: 0.2586E+00   max: -.1682E+01   D at   59  2   RLX: 0.297
       a =  6.000      CL =  1.7059
      Cm = -0.2675     CD =  0.01977   =>   CDf =  0.00635    CDp =  0.01342

 Side 1  free  transition at x/c =  0.5481   68
 Side 2  free  transition at x/c =  0.3167   36

   6   rms: 0.3637E+00   max: -.2244E+01   D at   59  2   RLX: 0.223
       a =  6.000      CL =  1.7239
      Cm = -0.2723     CD =  0.01857   =>   CDf =  0.00636    CDp =  0.01222

 Side 1  free  transition at x/c =  0.5472   68
 Side 2  free  transition at x/c =  0.3205   36

   7   rms: 0.4233E+00   max: -.2763E+01   D at   53  2   RLX: 0.181
       a =  6.000      CL =  1.7321
      Cm = -0.2736     CD =  0.01840   =>   CDf =  0.00643    CDp =  0.01197

 Side 1  free  transition at x/c =  0.5466   68
 Side 2  free  transition at x/c =  0.3233   36

   8   rms: 0.2895E+00   max: -.1742E+01   D at   64  2   RLX: 0.287
       a =  6.000      CL =  1.7444
      Cm = -0.2759     CD =  0.01833   =>   CDf =  0.00659    CDp =  0.01174

 MRCHDU: Convergence failed at  61  side 2    Res =  0.2379E+00
 Side 1  free  transition at x/c =  0.5458   68
 Side 2  free  transition at x/c =  0.3257   36

   9   rms: 0.1708E+00   max: -.1124E+01   D at   57  2   RLX: 0.445
       a =  6.000      CL =  1.7326
      Cm = -0.2718     CD =  0.01818   =>   CDf =  0.00691    CDp =  0.01127

 Side 1  free  transition at x/c =  0.5462   68
 Side 2  free  transition at x/c =  0.3241   36

  10   rms: 0.1041E+00   max: -.8286E+00   D at   58  2   RLX: 0.603
       a =  6.000      CL =  1.7258
      Cm = -0.2709     CD =  0.01807   =>   CDf =  0.00683    CDp =  0.01124

 Side 1  free  transition at x/c =  0.5465   68
 Side 2  free  transition at x/c =  0.3217   36

  11   rms: 0.4855E-01   max: -.5030E+00   D at   58  2   RLX: 0.994
       a =  6.000      CL =  1.7196
      Cm = -0.2697     CD =  0.01799   =>   CDf =  0.00679    CDp =  0.01119

 Side 1  free  transition at x/c =  0.5468   68
 Side 2  free  transition at x/c =  0.3196   36

  12   rms: 0.5070E-02   max: -.9359E-01   D at   58  2
       a =  6.000      CL =  1.7192
      Cm = -0.2696     CD =  0.01799   =>   CDf =  0.00677    CDp =  0.01121

 Side 1  free  transition at x/c =  0.5469   68
 Side 2  free  transition at x/c =  0.3195   36

  13   rms: 0.1601E-03   max: -.2911E-02   D at   58  2
       a =  6.000      CL =  1.7191
      Cm = -0.2696     CD =  0.01799   =>   CDf =  0.00677    CDp =  0.01121

 Side 1  free  transition at x/c =  0.5469   68
 Side 2  free  transition at x/c =  0.3195   36

  14   rms: 0.6197E-06   max: 0.4029E-05   T at   36  2
       a =  6.000      CL =  1.7191
      Cm = -0.2696     CD =  0.01799   =>   CDf =  0.00677    CDp =  0.01121

 Point added to stored polar  1
 Point written to save file  000081M0.1.log                                  
 Dump file unspecified or not available
 Calculating wake trajectory ...
 Calculating source influence matrix ...

 Solving BL system ...

 Side 1  free  transition at x/c =  0.5469   68
 Side 2  free  transition at x/c =  0.3195   36

   1   rms: 0.1493E+00   max: -.9241E+00   T at   36  2   RLX: 0.541
       a =  7.000      CL =  1.7766
      Cm = -0.2684     CD =  0.01848   =>   CDf =  0.00655    CDp =  0.01193

 Side 1  free  transition at x/c =  0.5260   68
 Side 2  free  transition at x/c =  0.3355   36

   2   rms: 0.1325E+00   max: -.9079E+00   T at   36  2   RLX: 0.551
       a =  7.000      CL =  1.7975
      Cm = -0.2666     CD =  0.01897   =>   CDf =  0.00685    CDp =  0.01212

 Side 1  free  transition at x/c =  0.5192   67
 Side 2  free  transition at x/c =  0.3488   36

   3   rms: 0.4969E-01   max: -.3037E+00   D at   68  1
       a =  7.000      CL =  1.8074
      Cm = -0.2638     CD =  0.01883   =>   CDf =  0.00680    CDp =  0.01202

 Side 1  free  transition at x/c =  0.5139   67
 Side 2  free  transition at x/c =  0.3552   37

   4   rms: 0.3627E-02   max: -.4959E-01   D at   36  2
       a =  7.000      CL =  1.8088
      Cm = -0.2642     CD =  0.01896   =>   CDf =  0.00668    CDp =  0.01228

 Side 1  free  transition at x/c =  0.5131   67
 Side 2  free  transition at x/c =  0.3551   37

   5   rms: 0.2187E-03   max: 0.2138E-02   D at   37  2
       a =  7.000      CL =  1.8087
      Cm = -0.2642     CD =  0.01896   =>   CDf =  0.00669    CDp =  0.01228

 Side 1  free  transition at x/c =  0.5131   67
 Side 2  free  transition at x/c =  0.3550   37

   6   rms: 0.1397E-05   max: -.7210E-05   D at   77  2
       a =  7.000      CL =  1.8087
      Cm = -0.2642     CD =  0.01896   =>   CDf =  0.00669    CDp =  0.01228

 Point added to stored polar  1
 Point written to save file  000081M0.1.log                                  
 Dump file unspecified or not available
 Calculating wake trajectory ...
 Calculating source influence matrix ...

 Solving BL system ...

 Side 1  free  transition at x/c =  0.5131   67
 Side 2  free  transition at x/c =  0.3550   37

   1   rms: 0.1648E+00   max: -.1058E+01   T at   37  2   RLX: 0.473
       a =  8.000      CL =  1.8458
      Cm = -0.2608     CD =  0.01933   =>   CDf =  0.00645    CDp =  0.01287

 Side 1  free  transition at x/c =  0.4936   67
 Side 2  free  transition at x/c =  0.3740   36

   2   rms: 0.7689E-01   max: -.5107E+00   T at   36  2   RLX: 0.979
       a =  8.000      CL =  1.8675
      Cm = -0.2532     CD =  0.02049   =>   CDf =  0.00676    CDp =  0.01374

 MRCHDU: Convergence failed at  38  side 2    Res =  0.1617E+01
 MRCHDU: Convergence failed at  39  side 2    Res =  0.5949E+01
 MRCHDU: Convergence failed at  40  side 2    Res =  0.4523E+02
 MRCHDU: Convergence failed at  41  side 2    Res =  0.3838E+02
 MRCHDU: Convergence failed at  42  side 2    Res =  0.2399E+02
 MRCHDU: Convergence failed at  43  side 2    Res =  0.2348E+02
 MRCHDU: Convergence failed at  44  side 2    Res =  0.2706E+02
 MRCHDU: Convergence failed at  45  side 2    Res =  0.3461E+02
 MRCHDU: Convergence failed at  46  side 2    Res =  0.4771E+02
 MRCHDU: Convergence failed at  47  side 2    Res =  0.8413E+02
 MRCHDU: Convergence failed at  48  side 2    Res =  0.2685E+03
 MRCHDU: Convergence failed at  49  side 2    Res =  0.5192E+03
 MRCHDU: Convergence failed at  50  side 2    Res =  0.9886E+02
 MRCHDU: Convergence failed at  51  side 2    Res =  0.5376E+02
 MRCHDU: Convergence failed at  52  side 2    Res =  0.3621E+02
 MRCHDU: Convergence failed at  53  side 2    Res =  0.2668E+02
 MRCHDU: Convergence failed at  54  side 2    Res =  0.2055E+02
 MRCHDU: Convergence failed at  55  side 2    Res =  0.1617E+02
 MRCHDU: Convergence failed at  56  side 2    Res =  0.1212E+02
 MRCHDU: Convergence failed at  57  side 2    Res =  0.9699E+01
 MRCHDU: Convergence failed at  58  side 2    Res =  0.7623E+01
 MRCHDU: Convergence failed at  59  side 2    Res =  0.5918E+01
 MRCHDU: Convergence failed at  60  side 2    Res =  0.4500E+01
 MRCHDU: Convergence failed at  61  side 2    Res =  0.3380E+01
 MRCHDU: Convergence failed at  62  side 2    Res =  0.2465E+01
 Side 1  free  transition at x/c =  0.4749   66
 Side 2  free  transition at x/c =  0.3980   38

   3   rms: 0.2182E+00   max: -.1025E+01   D at   61  2   RLX: 0.488
       a =  8.000      CL =  1.8518
      Cm = -0.2450     CD =  0.02031   =>   CDf =  0.00542    CDp =  0.01489

 Side 1  free  transition at x/c =  0.4750   66
 Side 2  free  transition at x/c =  0.3991   38

   4   rms: 0.4969E-01   max: -.4028E+00   D at   38  2
       a =  8.000      CL =  1.8746
      Cm = -0.2545     CD =  0.02046   =>   CDf =  0.00672    CDp =  0.01374

 Side 1  free  transition at x/c =  0.4766   66
 Side 2  free  transition at x/c =  0.3961   37

   5   rms: 0.3137E-02   max: 0.5849E-01   D at   39  2
       a =  8.000      CL =  1.8750
      Cm = -0.2546     CD =  0.02045   =>   CDf =  0.00656    CDp =  0.01389

 Side 1  free  transition at x/c =  0.4765   66
 Side 2  free  transition at x/c =  0.3956   37

   6   rms: 0.9179E-04   max: -.1618E-02   D at   39  2
       a =  8.000      CL =  1.8750
      Cm = -0.2546     CD =  0.02045   =>   CDf =  0.00655    CDp =  0.01390

 Point added to stored polar  1
 Point written to save file  000081M0.1.log                                  
 Dump file unspecified or not available
 Calculating wake trajectory ...
 Calculating source influence matrix ...

 Solving BL system ...

 Side 1  free  transition at x/c =  0.4765   66
 Side 2  free  transition at x/c =  0.3956   37

   1   rms: 0.1331E+00   max: -.8543E+00   T at   37  2   RLX: 0.585
       a =  9.000      CL =  1.9013
      Cm = -0.2469     CD =  0.02159   =>   CDf =  0.00631    CDp =  0.01528

 MRCHDU: Convergence failed at  38  side 2    Res =  0.7070E+01
 MRCHDU: Convergence failed at  39  side 2    Res =  0.4131E+01
 MRCHDU: Convergence failed at  40  side 2    Res =  0.2797E+02
 MRCHDU: Convergence failed at  41  side 2    Res =  0.3142E+02
 MRCHDU: Convergence failed at  42  side 2    Res =  0.1724E+02
 MRCHDU: Convergence failed at  43  side 2    Res =  0.1643E+02
 MRCHDU: Convergence failed at  44  side 2    Res =  0.1821E+02
 MRCHDU: Convergence failed at  45  side 2    Res =  0.2231E+02
 MRCHDU: Convergence failed at  46  side 2    Res =  0.3284E+02
 MRCHDU: Convergence failed at  47  side 2    Res =  0.6115E+02
 MRCHDU: Convergence failed at  48  side 2    Res =  0.4574E+03
 MRCHDU: Convergence failed at  49  side 2    Res =  0.7758E+02
 MRCHDU: Convergence failed at  50  side 2    Res =  0.3466E+02
 MRCHDU: Convergence failed at  51  side 2    Res =  0.2161E+02
 MRCHDU: Convergence failed at  52  side 2    Res =  0.1524E+02
 MRCHDU: Convergence failed at  53  side 2    Res =  0.1140E+02
 MRCHDU: Convergence failed at  54  side 2    Res =  0.8392E+01
 MRCHDU: Convergence failed at  55  side 2    Res =  0.6586E+01
 MRCHDU: Convergence failed at  56  side 2    Res =  0.5180E+01
 MRCHDU: Convergence failed at  57  side 2    Res =  0.4060E+01
 MRCHDU: Convergence failed at  58  side 2    Res =  0.3189E+01
 MRCHDU: Convergence failed at  59  side 2    Res =  0.2458E+01
 MRCHDU: Convergence failed at  60  side 2    Res =  0.1853E+01
 Side 1  free  transition at x/c =  0.4549   66
 Side 2  free  transition at x/c =  0.4280   38

   2   rms: 0.2354E+00   max: -.1211E+01   D at   57  2   RLX: 0.413
       a =  9.000      CL =  1.8998
      Cm = -0.2389     CD =  0.02218   =>   CDf =  0.00543    CDp =  0.01675

 Side 1  free  transition at x/c =  0.4479   66
 Side 2  free  transition at x/c =  0.4454   39

   3   rms: 0.4895E-01   max: -.3736E+00   D at   39  2
       a =  9.000      CL =  1.9350
      Cm = -0.2448     CD =  0.02270   =>   CDf =  0.00649    CDp =  0.01621

 Side 1  free  transition at x/c =  0.4407   65
 Side 2  free  transition at x/c =  0.4512   39

   4   rms: 0.6154E-02   max: -.8710E-01   D at   41  2
       a =  9.000      CL =  1.9344
      Cm = -0.2447     CD =  0.02277   =>   CDf =  0.00634    CDp =  0.01643

 Side 1  free  transition at x/c =  0.4412   66
 Side 2  free  transition at x/c =  0.4482   39

   5   rms: 0.1914E-02   max: -.2287E-01   D at   65  1
       a =  9.000      CL =  1.9343
      Cm = -0.2447     CD =  0.02276   =>   CDf =  0.00636    CDp =  0.01640

 Side 1  free  transition at x/c =  0.4414   66
 Side 2  free  transition at x/c =  0.4482   39

   6   rms: 0.1704E-03   max: -.1113E-02   D at   67  1
       a =  9.000      CL =  1.9344
      Cm = -0.2447     CD =  0.02276   =>   CDf =  0.00633    CDp =  0.01643

 Side 1  free  transition at x/c =  0.4413   66
 Side 2  free  transition at x/c =  0.4482   39

   7   rms: 0.3044E-05   max: -.1592E-04   D at   78  2
       a =  9.000      CL =  1.9344
      Cm = -0.2447     CD =  0.02276   =>   CDf =  0.00633    CDp =  0.01643

 Point added to stored polar  1
 Point written to save file  000081M0.1.log                                  
 Dump file unspecified or not available
 Calculating wake trajectory ...
 Calculating source influence matrix ...

 Solving BL system ...

 Side 1  free  transition at x/c =  0.4413   66
 Side 2  free  transition at x/c =  0.4482   39

   1   rms: 0.1537E+00   max: -.9025E+00   T at   39  2   RLX: 0.554
       a = 10.000      CL =  1.9658
      Cm = -0.2392     CD =  0.02452   =>   CDf =  0.00607    CDp =  0.01845

 Side 1  free  transition at x/c =  0.4175   65
 Side 2  free  transition at x/c =  0.4808   39

   2   rms: 0.7061E-01   max: -.4636E+00   T at   39  2
       a = 10.000      CL =  1.9851
      Cm = -0.2345     CD =  0.02610   =>   CDf =  0.00624    CDp =  0.01986

 MRCHDU: Convergence failed at  42  side 2    Res =  0.4595E+01
 MRCHDU: Convergence failed at  43  side 2    Res =  0.2106E+01
 MRCHDU: Convergence failed at  44  side 2    Res =  0.3543E+01
 MRCHDU: Convergence failed at  45  side 2    Res =  0.7148E+01
 MRCHDU: Convergence failed at  46  side 2    Res =  0.7520E+01
 MRCHDU: Convergence failed at  47  side 2    Res =  0.6434E+01
 Side 1  free  transition at x/c =  0.3929   64
 Side 2  free  transition at x/c =  0.5343   42

   3   rms: 0.7066E-01   max: -.7246E+00   D at   47  2   RLX: 0.690
       a = 10.000      CL =  1.9814
      Cm = -0.2339     CD =  0.02626   =>   CDf =  0.00586    CDp =  0.02040

 Side 1  free  transition at x/c =  0.3961   64
 Side 2  free  transition at x/c =  0.5441   43

   4   rms: 0.1206E-01   max: -.1457E+00   D at   43  2
       a = 10.000      CL =  1.9809
      Cm = -0.2340     CD =  0.02637   =>   CDf =  0.00604    CDp =  0.02032

 Side 1  free  transition at x/c =  0.3977   64
 Side 2  free  transition at x/c =  0.5351   42

   5   rms: 0.1747E-02   max: -.2665E-01   D at   42  2
       a = 10.000      CL =  1.9813
      Cm = -0.2341     CD =  0.02635   =>   CDf =  0.00600    CDp =  0.02035

 Side 1  free  transition at x/c =  0.3976   64
 Side 2  free  transition at x/c =  0.5334   42

   6   rms: 0.1036E-03   max: -.1726E-02   C at   42  2
       a = 10.000      CL =  1.9813
      Cm = -0.2341     CD =  0.02635   =>   CDf =  0.00600    CDp =  0.02035

 Side 1  free  transition at x/c =  0.3976   64
 Side 2  free  transition at x/c =  0.5334   42

   7   rms: 0.1495E-05   max: 0.1752E-04   C at   42  2
       a = 10.000      CL =  1.9813
      Cm = -0.2341     CD =  0.02635   =>   CDf =  0.00600    CDp =  0.02035

 Point added to stored polar  1
 Point written to save file  000081M0.1.log                                  
 Dump file unspecified or not available
 Calculating wake trajectory ...
 Calculating source influence matrix ...

 Solving BL system ...

 Side 1  free  transition at x/c =  0.3976   64
 Side 2  free  transition at x/c =  0.5334   42

   1   rms: 0.1824E+00   max: -.2001E+01   C at   42  2   RLX: 0.250
       a = 11.000      CL =  1.9929
      Cm = -0.2317     CD =  0.02738   =>   CDf =  0.00602    CDp =  0.02136

 Side 1  free  transition at x/c =  0.3808   63
 Side 2  free  transition at x/c =  0.5643   43

   2   rms: 0.1246E+00   max: -.1104E+01   C at   43  2   RLX: 0.453
       a = 11.000      CL =  2.0085
      Cm = -0.2288     CD =  0.02897   =>   CDf =  0.00575    CDp =  0.02321

 Side 1  free  transition at x/c =  0.3552   63
 Side 2  free  transition at x/c =  0.6276   46

   3   rms: 0.1725E+00   max: -.2713E+01   C at   46  2   RLX: 0.184
       a = 11.000      CL =  2.0092
      Cm = -0.2286     CD =  0.02959   =>   CDf =  0.00600    CDp =  0.02359

 Side 1  free  transition at x/c =  0.3506   63
 Side 2  free  transition at x/c =  0.6458   46

   4   rms: 0.7547E-01   max: -.6455E+00   C at   46  2   RLX: 0.775
       a = 11.000      CL =  2.0033
      Cm = -0.2233     CD =  0.03192   =>   CDf =  0.00597    CDp =  0.02596

 Side 1  free  transition at x/c =  0.3350   62
 Side 2 forced transition at x/c =  1.0001   66

   5   rms: 0.3554E-01   max: 0.5022E+00   D at   46  2
       a = 11.000      CL =  1.9952
      Cm = -0.2206     CD =  0.03239   =>   CDf =  0.00566    CDp =  0.02673

 Side 1  free  transition at x/c =  0.3324   62
 Side 2 forced transition at x/c =  1.0001   66

   6   rms: 0.4425E-02   max: 0.4033E-01   D at   47  2
       a = 11.000      CL =  1.9947
      Cm = -0.2205     CD =  0.03238   =>   CDf =  0.00565    CDp =  0.02673

 Side 1  free  transition at x/c =  0.3326   62
 Side 2 forced transition at x/c =  1.0001   66

   7   rms: 0.9980E-04   max: 0.6741E-03   D at   44  2
       a = 11.000      CL =  1.9947
      Cm = -0.2205     CD =  0.03238   =>   CDf =  0.00564    CDp =  0.02674

 Point added to stored polar  1
 Point written to save file  000081M0.1.log                                  
 Dump file unspecified or not available
 Calculating wake trajectory ...
 Calculating source influence matrix ...

 Solving BL system ...

 Side 1  free  transition at x/c =  0.3326   62
 Side 2 forced transition at x/c =  1.0001   66

   1   rms: 0.1852E+00   max: 0.1700E+01   C at   62  1   RLX: 0.606
       a = 12.000      CL =  1.9818
      Cm = -0.2111     CD =  0.03880   =>   CDf =  0.00566    CDp =  0.03314

 Side 1  free  transition at x/c =  0.2671   58
 Side 2 forced transition at x/c =  1.0001   66

   2   rms: 0.7905E-01   max: 0.7680E+00   C at   58  1
       a = 12.000      CL =  1.9623
      Cm = -0.2057     CD =  0.04500   =>   CDf =  0.00603    CDp =  0.03897

 Side 1  free  transition at x/c =  0.2073   54
 Side 2 forced transition at x/c =  1.0001   66

   3   rms: 0.3533E-01   max: -.5526E+00   C at   54  1   RLX: 0.905
       a = 12.000      CL =  1.9450
      Cm = -0.2053     CD =  0.04683   =>   CDf =  0.00641    CDp =  0.04042

 Side 1  free  transition at x/c =  0.2302   56
 Side 2 forced transition at x/c =  1.0001   66

   4   rms: 0.1184E-01   max: 0.2479E+00   C at   56  1
       a = 12.000      CL =  1.9473
      Cm = -0.2051     CD =  0.04642   =>   CDf =  0.00609    CDp =  0.04033

 Side 1  free  transition at x/c =  0.2228   55
 Side 2 forced transition at x/c =  1.0001   66

   5   rms: 0.8336E-03   max: -.1698E-01   C at   55  1
       a = 12.000      CL =  1.9470
      Cm = -0.2050     CD =  0.04644   =>   CDf =  0.00618    CDp =  0.04027

 Side 1  free  transition at x/c =  0.2233   55
 Side 2 forced transition at x/c =  1.0001   66

   6   rms: 0.8616E-05   max: -.1167E-03   C at   66  2
       a = 12.000      CL =  1.9470
      Cm = -0.2050     CD =  0.04644   =>   CDf =  0.00617    CDp =  0.04027

 Point added to stored polar  1
 Point written to save file  000081M0.1.log                                  
 Dump file unspecified or not available
 Calculating wake trajectory ...
 Calculating source influence matrix ...

 Solving BL system ...

 Side 1  free  transition at x/c =  0.2233   55
 Side 2 forced transition at x/c =  1.0001   66

   1   rms: 0.2699E+00   max: 0.4677E+01   C at   55  1   RLX: 0.321
       a = 13.000      CL =  1.9292
      Cm = -0.2010     CD =  0.05221   =>   CDf =  0.00619    CDp =  0.04601

 Side 1  free  transition at x/c =  0.1722   52
 Side 2 forced transition at x/c =  1.0001   66

   2   rms: 0.1602E+00   max: 0.2278E+01   C at   52  1   RLX: 0.659
       a = 13.000      CL =  1.8963
      Cm = -0.1970     CD =  0.06197   =>   CDf =  0.00624    CDp =  0.05573

 Side 1  free  transition at x/c =  0.1338   50
 Side 2 forced transition at x/c =  1.0001   65

   3   rms: 0.5165E-01   max: 0.3547E+00   D at   81  1
       a = 13.000      CL =  1.8739
      Cm = -0.1941     CD =  0.06757   =>   CDf =  0.00675    CDp =  0.06082

 Side 1  free  transition at x/c =  0.1214   49
 Side 2 forced transition at x/c =  1.0001   65

   4   rms: 0.9685E-02   max: -.1317E+00   C at   49  1
       a = 13.000      CL =  1.8689
      Cm = -0.1939     CD =  0.06756   =>   CDf =  0.00672    CDp =  0.06085

 Side 1  free  transition at x/c =  0.1239   49
 Side 2 forced transition at x/c =  1.0001   65

   5   rms: 0.4884E-03   max: -.7612E-02   C at   49  1
       a = 13.000      CL =  1.8689
      Cm = -0.1939     CD =  0.06747   =>   CDf =  0.00666    CDp =  0.06081

 Side 1  free  transition at x/c =  0.1240   49
 Side 2 forced transition at x/c =  1.0001   65

   6   rms: 0.1896E-04   max: 0.1945E-03   C at   49  1
       a = 13.000      CL =  1.8689
      Cm = -0.1939     CD =  0.06747   =>   CDf =  0.00666    CDp =  0.06081

 Point added to stored polar  1
 Point written to save file  000081M0.1.log                                  
 Dump file unspecified or not available
 Calculating wake trajectory ...
 Calculating source influence matrix ...

 Solving BL system ...

 Side 1  free  transition at x/c =  0.1240   49
 Side 2 forced transition at x/c =  1.0001   65

   1   rms: 0.1968E+00   max: 0.3037E+01   C at   49  1   RLX: 0.480
       a = 14.000      CL =  1.8513
      Cm = -0.1910     CD =  0.07710   =>   CDf =  0.00668    CDp =  0.07042

 Side 1  free  transition at x/c =  0.1001   47
 Side 2 forced transition at x/c =  1.0001   65

   2   rms: 0.7543E-01   max: 0.4005E+00   D at   77  1
       a = 14.000      CL =  1.8369
      Cm = -0.1885     CD =  0.08656   =>   CDf =  0.00681    CDp =  0.07975

 Side 1  free  transition at x/c =  0.0862   46
 Side 2 forced transition at x/c =  1.0001   65

   3   rms: 0.1677E-01   max: 0.2018E+00   D at   46  1
       a = 14.000      CL =  1.8290
      Cm = -0.1886     CD =  0.08653   =>   CDf =  0.00683    CDp =  0.07969

 Side 1  free  transition at x/c =  0.0886   46
 Side 2 forced transition at x/c =  1.0001   65

   4   rms: 0.3898E-02   max: 0.6073E-01   C at   46  1
       a = 14.000      CL =  1.8291
      Cm = -0.1885     CD =  0.08622   =>   CDf =  0.00668    CDp =  0.07954

 Side 1  free  transition at x/c =  0.0878   46
 Side 2 forced transition at x/c =  1.0001   65

   5   rms: 0.2812E-03   max: 0.1307E-02   D at   75  1
       a = 14.000      CL =  1.8288
      Cm = -0.1885     CD =  0.08625   =>   CDf =  0.00671    CDp =  0.07954

 Side 1  free  transition at x/c =  0.0879   46
 Side 2 forced transition at x/c =  1.0001   65

   6   rms: 0.1396E-04   max: 0.8746E-04   D at   80  2
       a = 14.000      CL =  1.8288
      Cm = -0.1885     CD =  0.08625   =>   CDf =  0.00671    CDp =  0.07954

 Point added to stored polar  1
 Point written to save file  000081M0.1.log                                  
 Dump file unspecified or not available
 Calculating wake trajectory ...
 Calculating source influence matrix ...

 Solving BL system ...

 Side 1  free  transition at x/c =  0.0879   46
 Side 2 forced transition at x/c =  1.0001   65

   1   rms: 0.1424E+00   max: 0.8792E+00   C at   46  1   RLX: 0.419
       a = 15.000      CL =  1.8153
      Cm = -0.1872     CD =  0.09526   =>   CDf =  0.00673    CDp =  0.08852

 Side 1  free  transition at x/c =  0.0808   45
 Side 2 forced transition at x/c =  1.0001   65

   2   rms: 0.7160E-01   max: -.4559E+00   D at   45  1
       a = 15.000      CL =  1.8220
      Cm = -0.1858     CD =  0.10298   =>   CDf =  0.00625    CDp =  0.09674

 Side 1  free  transition at x/c =  0.0717   45
 Side 2 forced transition at x/c =  1.0001   64

   3   rms: 0.3210E-01   max: -.3629E+00   D at   45  1
       a = 15.000      CL =  1.8090
      Cm = -0.1863     CD =  0.10374   =>   CDf =  0.00666    CDp =  0.09709

 Side 1  free  transition at x/c =  0.0729   45
 Side 2 forced transition at x/c =  1.0001   64

   4   rms: 0.5985E-02   max: 0.6573E-01   C at   45  1
       a = 1Got result {'DD': 0.0153, 'Dmin': 0.0154, 'LL': -1.2636}
Completed successfully in 2.43 seconds. [{'DD': 0.0153, 'Dmin': 0.0154, 'LL': -1.2636}]
5.000      CL =  1.8093
      Cm = -0.1859     CD =  0.10321   =>   CDf =  0.00654    CDp =  0.09668

 Side 1  free  transition at x/c =  0.0722   45
 Side 2 forced transition at x/c =  1.0001   64

   5   rms: 0.3274E-03   max: -.4807E-02   D at   46  1
       a = 15.000      CL =  1.8092
      Cm = -0.1859     CD =  0.10331   =>   CDf =  0.00658    CDp =  0.09673

 Side 1  free  transition at x/c =  0.0721   45
 Side 2 forced transition at x/c =  1.0001   64

   6   rms: 0.1525E-04   max: 0.1018E-03   D at   82  2
       a = 15.000      CL =  1.8091
      Cm = -0.1859     CD =  0.10331   =>   CDf =  0.00658    CDp =  0.09673

 Point added to stored polar  1
 Point written to save file  000081M0.1.log                                  
 Dump file unspecified or not available

.OPERva   c>  
 XFOIL   c>  
