Job launching after 0.29 seconds in submission.
Running python job.
Changed into dir /home/simonx/Documents/Udacity/Projects/capstone/PESM_NSGA2_CST_XFoil
Importing evaluationFunctionXFoil.py
Running evaluationFunctionXFoil.main()
0
1
2
0.04
resp: 
 ===================================================
  XFOIL Version 6.97
  Copyright (C) 2000   Mark Drela, Harold Youngren

  This software comes with ABSOLUTELY NO WARRANTY,
    subject to the GNU General Public License.

  Caveat computor
 ===================================================

 File  xfoil.def  not found

   QUIT    Exit program

  .OPER    Direct operating point(s)
  .MDES    Complex mapping design routine
  .QDES    Surface speed design routine
  .GDES    Geometry design routine

   SAVE f  Write airfoil to labeled coordinate file
   PSAV f  Write airfoil to plain coordinate file
   ISAV f  Write airfoil to ISES coordinate file
   MSAV f  Write airfoil to MSES coordinate file
   REVE    Reverse written-airfoil node ordering
   DELI i  Change written-airfoil file delimiters

   LOAD f  Read buffer airfoil from coordinate file
   NACA i  Set NACA 4,5-digit airfoil and buffer airfoil
   INTE    Set buffer airfoil by interpolating two airfoils
   NORM    Buffer airfoil normalization toggle
   HALF    Halve the number of points in buffer airfoil
   XYCM rr Change CM reference location, currently  0.25000 0.00000

   BEND    Display structural properties of current airfoil

   PCOP    Set current-airfoil panel nodes directly from buffer airfoil points
   PANE    Set current-airfoil panel nodes ( 160 ) based on curvature
  .PPAR    Show/change paneling

  .PLOP    Plotting options

   WDEF f  Write  current-settings file
   RDEF f  Reread current-settings file
   NAME s  Specify new airfoil name
   NINC    Increment name version number

   Z       Zoom    | (available in all menus)
   U       Unzoom  | 

 XFOIL   c>   ...............................................

  G raphics-enable flag:        T
  S ize of plot object          10.00"
  A spect ratio of plot object   0.5500
  P age dimensions              11.00 x  8.50"
  M argins from page edges       0.00",  0.00"
  F ont size (relative)          0.0150
  W indow/screen size fraction   0.8000
  B lowup input method:        Cursor    
  O rientation of plot:        Landscape 
  C olor PostScript output?     F

      Option, Value   (or <Return>)    c>   ...............................................

  G raphics-enable flag:        F
  S ize of plot object          10.00"
  A spect ratio of plot object   0.5500
  P age dimensions              11.00 x  8.50"
  M argins from page edges       0.00",  0.00"
  F ont size (relative)          0.0150
  W indow/screen size fraction   0.8000
  B lowup input method:        Cursor    
  O rientation of plot:        Landscape 
  C olor PostScript output?     F

      Option, Value   (or <Return>)    c>  
 XFOIL   c>  
 Labeled airfoil file.  Name:  000192                                          

 Number of input coordinate points: 200
 Clockwise ordering
 Max thickness =     0.127534  at x =   0.181
 Max camber    =     0.072260  at x =   0.287

  LE  x,y  =  -0.00005   0.00151  |   Chord =   0.99992
  TE  x,y  =   0.99988   0.00006  |

 Current airfoil nodes set from buffer airfoil nodes ( 200 )

 XFOIL   c>  
 You are working with the buffer airfoil

.GDES   c>  
  i       x        y      angle
   2   0.9990   0.0005    0.078
   3   0.9978   0.0011    0.196
   4   0.9961   0.0019    0.250
   5   0.9938   0.0029    0.319
   6   0.9911   0.0041    0.350
   7   0.9880   0.0056    0.407
   8   0.9843   0.0072    0.472
   9   0.9801   0.0090    0.512
  10   0.9755   0.0109    0.554
  11   0.9704   0.0130    0.597
  12   0.9649   0.0152    0.642
  13   0.9589   0.0175    0.652
  14   0.9524   0.0199    0.700
  15   0.9455   0.0224    0.703
  16   0.9382   0.0249    0.719
  17   0.9304   0.0275    0.736
  18   0.9222   0.0301    0.733
  19   0.9135   0.0327    0.725
  20   0.9045   0.0353    0.714
  21   0.8951   0.0379    0.705
  22   0.8853   0.0405    0.678
  23   0.8751   0.0430    0.652
  24   0.8645   0.0455    0.613
  25   0.8536   0.0480    0.589
  26   0.8423   0.0504    0.538
  27   0.8307   0.0528    0.498
  28   0.8187   0.0552    0.449
  29   0.8065   0.0575    0.402
  30   0.7939   0.0598    0.356
  31   0.7810   0.0620    0.303
  32   0.7679   0.0642    0.256
  33   0.7545   0.0664    0.202
  34   0.7409   0.0686    0.162
  35   0.7270   0.0708    0.116
  36   0.7129   0.0730    0.070
  37   0.6986   0.0752    0.040
  38   0.6841   0.0775    0.003
  39   0.6694   0.0797   -0.027
  40   0.6545   0.0820   -0.047
  41   0.6395   0.0843   -0.068
  42   0.6243   0.0867   -0.077
  43   0.6091   0.0891   -0.087
  44   0.5937   0.0916   -0.087
  45   0.5782   0.0941   -0.078
  46   0.5627   0.0966   -0.071
  47   0.5471   0.0991   -0.048
  48   0.5314   0.1017   -0.024
  49   0.5157   0.1043    0.005
  50   0.5000   0.1069    0.039
  51   0.4843   0.1095    0.084
  52   0.4686   0.1120    0.132
  53   0.4529   0.1145    0.185
  54   0.4373   0.1170    0.238
  55   0.4218   0.1193    0.298
  56   0.4063   0.1216    0.370
  57   0.3909   0.1238    0.434
  58   0.3757   0.1258    0.509
  59   0.3605   0.1277    0.582
  60   0.3455   0.1294    0.662
  61   0.3306   0.1309    0.737
  62   0.3159   0.1322    0.823
  63   0.3014   0.1333    0.902
  64   0.2871   0.1342    0.987
  65   0.2730   0.1347    1.071
  66   0.2591   0.1351    1.153
  67   0.2455   0.1351    1.238
  68   0.2321   0.1348    1.312
  69   0.2190   0.1343    1.399
  70   0.2061   0.1334    1.474
  71   0.1935   0.1323    1.548
  72   0.1813   0.1308    1.628
  73   0.1693   0.1290    1.693
  74   0.1577   0.1270    1.770
  75   0.1464   0.1246    1.836
  76   0.1355   0.1219    1.900
  77   0.1249   0.1189    1.969
  78   0.1147   0.1157    2.036
  79   0.1049   0.1122    2.108
  80   0.0955   0.1084    2.165
  81   0.0865   0.1044    2.251
  82   0.0778   0.1002    2.324
  83   0.0696   0.0957    2.414
  84   0.0618   0.0911    2.495
  85   0.0545   0.0862    2.596
  86   0.0476   0.0812    2.718
  87   0.0411   0.0760    2.831
  88   0.0351   0.0707    2.968
  89   0.0296   0.0652    3.109
  90   0.0245   0.0597    3.266
  91   0.0199   0.0540    3.439
  92   0.0157   0.0482    3.617
  93   0.0120   0.0423    3.784
  94   0.0089   0.0364    3.975
  95   0.0062   0.0304    4.139
  96   0.0039   0.0244    4.289
  97   0.0022   0.0183    4.435
  98   0.0010   0.0122    4.524
  99   0.0002   0.0061    4.591
 100   0.0000   0.0000   10.844
 101   0.0002  -0.0016   16.016
 102   0.0010  -0.0033   13.571
 103   0.0022  -0.0048   10.928
 104   0.0039  -0.0063    8.650
 105   0.0062  -0.0077    6.953
 106   0.0089  -0.0090    5.627
 107   0.0120  -0.0102    4.651
 108   0.0157  -0.0111    3.905
 109   0.0199  -0.0120    3.324
 110   0.0245  -0.0126    2.830
 111   0.0296  -0.0130    2.431
 112   0.0351  -0.0133    2.092
 113   0.0411  -0.0133    1.789
 114   0.0476  -0.0132    1.530
 115   0.0545  -0.0129    1.291
 116   0.0618  -0.0123    1.089
 117   0.0696  -0.0116    0.886
 118   0.0778  -0.0107    0.705
 119   0.0865  -0.0097    0.552
 120   0.0955  -0.0085    0.398
 121   0.1049  -0.0073    0.262
 122   0.1147  -0.0059    0.129
 123   0.1249  -0.0044    0.021
 124   0.1355  -0.0029   -0.090
 125   0.1464  -0.0013   -0.181
 126   0.1577   0.0002   -0.266
 127   0.1693   0.0018   -0.338
 128   0.1813   0.0033   -0.410
 129   0.1935   0.0048   -0.457
 130   0.2061   0.0062   -0.505
 131   0.2190   0.0075   -0.535
 132   0.2321   0.0088   -0.559
 133   0.2455   0.0099   -0.577
 134   0.2591   0.0109   -0.574
 135   0.2730   0.0118   -0.576
 136   0.2871   0.0126   -0.565
 137   0.3014   0.0132   -0.535
 138   0.3159   0.0137   -0.515
 139   0.3306   0.0141   -0.475
 140   0.3455   0.0143   -0.434
 141   0.3605   0.0145   -0.399
 142   0.3757   0.0145   -0.339
 143   0.3909   0.0145   -0.297
 144   0.4063   0.0144   -0.238
 145   0.4218   0.0142   -0.181
 146   0.4373   0.0139   -0.136
 147   0.4529   0.0137   -0.074
 148   0.4686   0.0134   -0.023
 149   0.4843   0.0131    0.023
 150   0.5000   0.0128    0.073
 151   0.5157   0.0125    0.109
 152   0.5314   0.0122    0.156
 153   0.5471   0.0120    0.178
 154   0.5627   0.0119    0.211
 155   0.5782   0.0118    0.228
 156   0.5937   0.0117    0.241
 157   0.6091   0.0118    0.248
 158   0.6243   0.0119    0.249
 159   0.6395   0.0120    0.242
 160   0.6545   0.0122    0.224
 161   0.6694   0.0125    0.207
 162   0.6841   0.0128    0.182
 163   0.6986   0.0132    0.140
 164   0.7129   0.0136    0.109
 165   0.7270   0.0140    0.060
 166   0.7409   0.0145    0.010
 167   0.7545   0.0149   -0.044
 168   0.7679   0.0153   -0.096
 169   0.7810   0.0157   -0.161
 170   0.7939   0.0160   -0.217
 171   0.8065   0.0163   -0.287
 172   0.8187   0.0165   -0.339
 173   0.8307   0.0166   -0.411
 174   0.8423   0.0167   -0.461
 175   0.8536   0.0166   -0.532
 176   0.8645   0.0165   -0.573
 177   0.8751   0.0162   -0.632
 178   0.8853   0.0159   -0.676
 179   0.8951   0.0154   -0.710
 180   0.9045   0.0149   -0.754
 181   0.9135   0.0142   -0.775
 182   0.9222   0.0135   -0.794
 183   0.9304   0.0126   -0.810
 184   0.9382   0.0118   -0.816
 185   0.9455   0.0108   -0.800
 186   0.9524   0.0098   -0.796
 187   0.9589   0.0088   -0.769
 188   0.9649   0.0078   -0.753
 189   0.9704   0.0068   -0.711
 190   0.9755   0.0058   -0.672
 191   0.9801   0.0048   -0.623
 192   0.9843   0.0039   -0.574
 193   0.9880   0.0030   -0.493
 194   0.9911   0.0023   -0.455
 195   0.9938   0.0016   -0.366
 196   0.9961   0.0010   -0.307
 197   0.9978   0.0006   -0.236
 198   0.9990   0.0003   -0.115
 199   0.9998   0.0001   -0.197

 Maximum panel corner angle = 16.016   at  i,x,y  = 101   0.0002  -0.0016

 Enter corner angle criterion for refinement (deg):   8.008
 Enter type of spline parameter (1=uniform, 2=arclength):   1
 Enter refinement x limits:  -0.10000   1.10000
 Number of points added:           10
 Max thickness =     0.127505  at x =   0.181
 Max camber    =     0.073468  at x =   0.287

 Maximum panel corner angle = 14.232   at  i,x,y  = 103   0.0001  -0.0014

.GDES   c>  
 Buffer airfoil is not identical to current airfoil

 XFOIL   c>  
 Blunt trailing edge.  Gap =  0.00027

 Paneling parameters used...
   Number of panel nodes       160
   Panel bunching parameter    1.000
   TE/LE panel density ratio   0.150
   Refined-area/LE panel density ratio    0.200
   Top    side refined area x/c limits  1.000 1.000
   Bottom side refined area x/c limits  1.000 1.000

 XFOIL   c>  
Enter output filename   s>  
 XFOIL   c>  
.OPERi   c>   Current iteration limit:          20

Enter new iteration limit   i>  
Enter new iteration limit   i>  
Enter new iteration limit   i>  
.OPERi   c>  
 M  =    0.0000
 Re =  0.3000E+06

.OPERv   c>  
 Sonic Cp =   -420.65      Sonic Q/Qinf =    22.825


.OPERv   c>  
 Polar  1 newly created for accumulation
 Airfoil archived with polar: 000192                                          

Enter  polar save filename  OR  <return> for no file   s>  
 New polar save file available

Enter  polar dump filename  OR  <return> for no file   s>  
 Polar dump file will NOT be written

 Polar accumulation enabled

.OPERva   c>   Calculating unit vorticity distributions ...
 Calculating wake trajectory ...
 Calculating source influence matrix ...

 Solving BL system ...

 Initializing BL ...
    side            1  ...
 MRCHUE: Inverse mode at  42     Hk =   4.402
 MRCHUE: Inverse mode at  43     Hk =   5.317
 MRCHUE: Inverse mode at  44     Hk =   6.214
 MRCHUE: Inverse mode at  45     Hk =   7.100
 MRCHUE: Inverse mode at  46     Hk =   7.981
 MRCHUE: Inverse mode at  47     Hk =   8.859
 MRCHUE: Inverse mode at  48     Hk =   7.991
 MRCHUE: Inverse mode at  49     Hk =   4.508
 MRCHUE: Inverse mode at  50     Hk =   2.635
 MRCHUE: Convergence failed at  86  side 1    Res =  0.4660E+01
    side            2  ...
 MRCHUE: Inverse mode at  27     Hk =   4.645
 MRCHUE: Inverse mode at  28     Hk =   5.485
 MRCHUE: Inverse mode at  29     Hk =   6.306
 MRCHUE: Inverse mode at  30     Hk =   7.101
 MRCHUE: Inverse mode at  31     Hk =   7.871
 MRCHUE: Inverse mode at  32     Hk =   8.618
 MRCHUE: Inverse mode at  33     Hk =   9.345
 MRCHUE: Inverse mode at  34     Hk =   6.872
 MRCHUE: Inverse mode at  35     Hk =   4.708
 MRCHUE: Inverse mode at  36     Hk =   3.319

 MRCHDU: Convergence failed at  86  side 1    Res =  0.5511E+01
 Side 1  free  transition at x/c =  0.3364   48
 Side 2  free  transition at x/c =  0.2447   34

   1   rms: 0.2954E+00   max: -.1356E+01   D at   76  2   RLX: 0.369
       a =  2.000      CL =  1.1829
      Cm = -0.1695     CD =  0.01177   =>   CDf =  0.00945    CDp =  0.00232

 Side 1  free  transition at x/c =  0.3429   48
 Side 2  free  transition at x/c =  0.2473   35

   2   rms: 0.1702E+00   max: -.8922E+00   D at   77  2   RLX: 0.560
       a =  2.000      CL =  1.1122
      Cm = -0.1554     CD =  0.01325   =>   CDf =  0.00914    CDp =  0.00411

 Side 1  free  transition at x/c =  0.3487   48
 Side 2  free  transition at x/c =  0.2528   35

   3   rms: 0.6430E-01   max: -.4722E+00   D at   37  2
       a =  2.000      CL =  1.0793
      Cm = -0.1491     CD =  0.01590   =>   CDf =  0.00898    CDp =  0.00692

 Side 1  free  transition at x/c =  0.3539   47
 Side 2  free  transition at x/c =  0.2561   36

   4   rms: 0.1289E-01   max: -.2032E+00   C at   36  2
       a =  2.000      CL =  1.0810
      Cm = -0.1494     CD =  0.01609   =>   CDf =  0.00878    CDp =  0.00731

 Side 1  free  transition at x/c =  0.3538   47
 Side 2  free  transition at x/c =  0.2556   36

   5   rms: 0.1844E-02   max: 0.2244E-01   C at   36  2
       a =  2.000      CL =  1.0810
      Cm = -0.1494     CD =  0.01610   =>   CDf =  0.00875    CDp =  0.00736

 Side 1  free  transition at x/c =  0.3538   47
 Side 2  free  transition at x/c =  0.2551   36

   6   rms: 0.5761E-05   max: -.7618E-04   D at   38  2
       a =  2.000      CL =  1.0810
      Cm = -0.1494     CD =  0.01610   =>   CDf =  0.00875    CDp =  0.00736

 Point added to stored polar  1
 Point written to save file  000192M0.04.log                                 
 Dump file unspecified or not available
 Calculating wake trajectory ...
 Calculating source influence matrix ...

 Solving BL system ...

 Side 1  free  transition at x/c =  0.3538   47
 Side 2  free  transition at x/c =  0.2551   36

   1   rms: 0.2584E+00   max: -.2996E+01   C at   36  2   RLX: 0.167
       a =  3.000      CL =  1.1011
      Cm = -0.1497     CD =  0.01612   =>   CDf =  0.00861    CDp =  0.00751

 Side 1  free  transition at x/c =  0.3511   48
 Side 2  free  transition at x/c =  0.2895   37

   2   rms: 0.2229E+00   max: -.2307E+01   T at   37  2   RLX: 0.217
       a =  3.000      CL =  1.1230
      Cm = -0.1499     CD =  0.01623   =>   CDf =  0.00871    CDp =  0.00751

 Side 1  free  transition at x/c =  0.3481   48
 Side 2  free  transition at x/c =  0.8207   65

   3   rms: 0.2332E+00   max: 0.1900E+01   C at   66  2   RLX: 0.409
       a =  3.000      CL =  1.1545
      Cm = -0.1493     CD =  0.01575   =>   CDf =  0.00761    CDp =  0.00814

 MRCHDU: Convergence failed at  68  side 2    Res =  0.6665E+01
 MRCHDU: Convergence failed at  69  side 2    Res =  0.1254E+01
 MRCHDU: Convergence failed at  70  side 2    Res =  0.1780E+01
 MRCHDU: Convergence failed at  71  side 2    Res =  0.2379E+01
 MRCHDU: Convergence failed at  72  side 2    Res =  0.2482E+01
 MRCHDU: Convergence failed at  73  side 2    Res =  0.1791E+01
 Side 1  free  transition at x/c =  0.3438   48
 Side 2 forced transition at x/c =  1.0001   77

   4   rms: 0.1509E+00   max: 0.3073E+01   C at   77  2   RLX: 0.488
       a =  3.000      CL =  1.1558
      Cm = -0.1430     CD =  0.01540   =>   CDf =  0.00743    CDp =  0.00797

 Side 1  free  transition at x/c =  0.3420   49
 Side 2 forced transition at x/c =  1.0001   76

   5   rms: 0.8398E-01   max: -.1040E+01   T at    2  1   RLX: 0.481
       a =  3.000      CL =  1.1594
      Cm = -0.1425     CD =  0.01550   =>   CDf =  0.00751    CDp =  0.00800

 Side 1  free  transition at x/c =  0.3409   48
 Side 2 forced transition at x/c =  1.0001   76

   6   rms: 0.3572E-01   max: 0.4383E+00   C at   76  2
       a =  3.000      CL =  1.1563
      Cm = -0.1402     CD =  0.01540   =>   CDf =  0.00750    CDp =  0.00790

 Side 1  free  transition at x/c =  0.3402   48
 Side 2  free  transition at x/c =  0.9255   71

   7   rms: 0.2305E-01   max: -.3299E+00   D at   72  2
       a =  3.000      CL =  1.1715
      Cm = -0.1437     CD =  0.01580   =>   CDf =  0.00750    CDp =  0.00829

 Side 1  free  transition at x/c =  0.3396   48
 Side 2  free  transition at x/c =  0.9296   71

   8   rms: 0.3318E-02   max: 0.5319E-01   C at   71  2
       a =  3.000      CL =  1.1706
      Cm = -0.1435     CD =  0.01577   =>   CDf =  0.00750    CDp =  0.00827

 Side 1  free  transition at x/c =  0.3397   48
 Side 2  free  transition at x/c =  0.9282   71

   9   rms: 0.8686E-04   max: -.1147E-02   D at   74  2
       a =  3.000      CL =  1.1706
      Cm = -0.1435     CD =  0.01577   =>   CDf =  0.00750    CDp =  0.00827

 Point added to stored polar  1
 Point written to save file  000192M0.04.log                                 
 Dump file unspecified or not available
 Calculating wake trajectory ...
 Calculating source influence matrix ...

 Solving BL system ...

 Side 1  free  transition at x/c =  0.3397   48
 Side 2  free  transition at x/c =  0.9282   71

   1   rms: 0.1706E+00   max: -.1677E+01   C at   71  2   RLX: 0.298
       a =  4.000      CL =  1.1877
      Cm = -0.1396     CD =  0.01564   =>   CDf =  0.00751    CDp =  0.00812

 Side 1  free  transition at x/c =  0.3359   48
 Side 2  free  transition at x/c =  0.9532   73

   2   rms: 0.1791E+00   max: -.2715E+01   C at   73  2   RLX: 0.184
       a =  4.000      CL =  1.1940
      Cm = -0.1383     CD =  0.01568   =>   CDf =  0.00745    CDp =  0.00822

 Side 1  free  transition at x/c =  0.3343   48
 Side 2  free  transition at x/c =  0.9662   74

   3   rms: 0.2110E+00   max: -.3646E+01   C at   74  2   RLX: 0.137
       a =  4.000      CL =  1.1999
      Cm = -0.1378     CD =  0.01574   =>   CDf =  0.00744    CDp =  0.00830

 Side 1  free  transition at x/c =  0.3333   48
 Side 2  free  transition at x/c =  0.9766   74

   4   rms: 0.9544E-01   max: -.7212E+00   T at   74  2   RLX: 0.693
       a =  4.000      CL =  1.2413
      Cm = -0.1381     CD =  0.01588   =>   CDf =  0.00729    CDp =  0.00859

 Side 1  free  transition at x/c =  0.3280   49
 Side 2 forced transition at x/c =  1.0001   75

   5   rms: 0.4808E-01   max: 0.4249E+00   D at   73  2
       a =  4.000      CL =  1.2739
      Cm = -0.1414     CD =  0.01636   =>   CDf =  0.00756    CDp =  0.00880

 Side 1  free  transition at x/c =  0.3258   49
 Side 2 forced transition at x/c =  1.0001   75

   6   rms: 0.3503E-02   max: 0.4819E-01   D at   74  2
       a =  4.000      CL =  1.2732
      Cm = -0.1412     CD =  0.01638   =>   CDf =  0.00764    CDp =  0.00875

 Side 1  free  transition at x/c =  0.3257   49
 Side 2 forced transition at x/c =  1.0001   75

   7   rms: 0.1109E-03   max: 0.2063E-02   C at   75  2
       a =  4.000      CL =  1.2731
      Cm = -0.1412     CD =  0.01639   =>   CDf =  0.00764    CDp =  0.00875

 Side 1  free  transition at x/c =  0.3257   49
 Side 2 forced transition at x/c =  1.0001   75

   8   rms: 0.8040E-06   max: -.1078E-04   C at   75  2
       a =  4.000      CL =  1.2731
      Cm = -0.1412     CD =  0.01639   =>   CDf =  0.00764    CDp =  0.00875

 Point added to stored polar  1
 Point written to save file  000192M0.04.log                                 
 Dump file unspecified or not available
 Calculating wake trajectory ...
 Calculating source influence matrix ...

 Solving BL system ...

 Side 1  free  transition at x/c =  0.3257   49
 Side 2 forced transition at x/c =  1.0001   75

   1   rms: 0.1689E+00   max: -.4054E+00   C at   75  2
       a =  5.000      CL =  1.3937
      Cm = -0.1436     CD =  0.01826   =>   CDf =  0.00750    CDp =  0.01076

 MRCHDU: Convergence failed at  50  side 1    Res =  0.2652E+01
 MRCHDU: Convergence failed at  51  side 1    Res =  0.3147E+01
 MRCHDU: Convergence failed at  52  side 1    Res =  0.2520E+01
 MRCHDU: Convergence failed at  53  side 1    Res =  0.2484E+01
 MRCHDU: Convergence failed at  54  side 1    Res =  0.2833E+01
 MRCHDU: Convergence failed at  55  side 1    Res =  0.3352E+01
 MRCHDU: Convergence failed at  56  side 1    Res =  0.3812E+01
 MRCHDU: Convergence failed at  57  side 1    Res =  0.4297E+01
 MRCHDU: Convergence failed at  58  side 1    Res =  0.4709E+01
 MRCHDU: Convergence failed at  59  side 1    Res =  0.4790E+01
 MRCHDU: Convergence failed at  60  side 1    Res =  0.4964E+01
 MRCHDU: Convergence failed at  61  side 1    Res =  0.4803E+01
 MRCHDU: Convergence failed at  62  side 1    Res =  0.2406E+02
 MRCHDU: Convergence failed at  63  side 1    Res =  0.3384E+02
 MRCHDU: Convergence failed at  64  side 1    Res =  0.4754E+02
 MRCHDU: Convergence failed at  65  side 1    Res =  0.7619E+02
 MRCHDU: Convergence failed at  66  side 1    Res =  0.1355E+03
 MRCHDU: Convergence failed at  67  side 1    Res =  0.2618E+04
 MRCHDU: Convergence failed at  68  side 1    Res =  0.1643E+03
 MRCHDU: Convergence failed at  69  side 1    Res =  0.9152E+02
 MRCHDU: Convergence failed at  70  side 1    Res =  0.6532E+02
 MRCHDU: Convergence failed at  71  side 1    Res =  0.5190E+02
 MRCHDU: Convergence failed at  72  side 1    Res =  0.4302E+02
 MRCHDU: Convergence failed at  73  side 1    Res =  0.3696E+02
 MRCHDU: Convergence failed at  74  side 1    Res =  0.3234E+02
 MRCHDU: Convergence failed at  75  side 1    Res =  0.2837E+02
 MRCHDU: Convergence failed at  76  side 1    Res =  0.2485E+02
 MRCHDU: Convergence failed at  77  side 1    Res =  0.2196E+02
 MRCHDU: Convergence failed at  78  side 1    Res =  0.2079E+02
 MRCHDU: Convergence failed at  79  side 1    Res =  0.2033E+02
 MRCHDU: Convergence failed at  80  side 1    Res =  0.6710E+02
 MRCHDU: Convergence failed at  81  side 1    Res =  0.2741E+02
 MRCHDU: Convergence failed at  82  side 1    Res =  0.1245E+02
 MRCHDU: Convergence failed at  83  side 1    Res =  0.3923E+02
 MRCHDU: Convergence failed at  84  side 1    Res =  0.5429E+02
 MRCHDU: Convergence failed at  85  side 1    Res =  0.6276E+02
 MRCHDU: Convergence failed at  86  side 1    Res =  0.2815E+02
 MRCHDU: Convergence failed at  87  side 1    Res =  0.1524E+02
 MRCHDU: Convergence failed at  88  side 1    Res =  0.1897E+02
 Side 1  free  transition at x/c =  0.3132   49
 Side 2 forced transition at x/c =  1.0001   74

   2   rms: 0.9767E+00   max: -.5542E+01   C at   74  2   RLX: 0.090
       a =  5.000      CL =  2.0262
      Cm = -0.4421     CD =  0.00470   =>   CDf =  0.00410    CDp =  0.00060

 MRCHDU: Convergence failed at  55  side 1    Res =  0.3323E-03
 MRCHDU: Convergence failed at  57  side 1    Res =  0.3346E+00
 Side 1  free  transition at x/c =  0.3093   49
 Side 2 forced transition at x/c =  1.0001   74

   3   rms: 0.3810E+00   max: 0.7695E+00   D at   82  2   RLX: 0.616
       a =  5.000      CL =  1.5591
      Cm = -0.2256     CD =  0.01476   =>   CDf =  0.01028    CDp =  0.00448

 MRCHDU: Convergence failed at  58  side 1    Res =  0.1928E+00
 Side 1  free  transition at x/c =  0.3126   49
 Side 2 forced transition at x/c =  1.0001   74

   4   rms: 0.3473E+00   max: 0.1721E+01   C at   74  2   RLX: 0.294
       a =  5.000      CL =  1.5479
      Cm = -0.2026     CD =  0.01394   =>   CDf =  0.00858    CDp =  0.00536

 MRCHDU: Convergence failed at  77  side 1    Res =  0.2325E+00
 Side 1  free  transition at x/c =  0.3129   49
 Side 2 forced transition at x/c =  1.0001   74

   5   rms: 0.1441E+00   max: -.8262E+00   D at   81  1   RLX: 0.605
       a =  5.000      CL =  1.4782
      Cm = -0.1711     CD =  0.01513   =>   CDf =  0.00857    CDp =  0.00656

 Side 1  free  transition at x/c =  0.3127   49
 Side 2 forced transition at x/c =  1.0001   74

   6   rms: 0.7886E-01   max: -.4824E+00   D at   82  1
       a =  5.000      CL =  1.3998
      Cm = -0.1435     CD =  0.01693   =>   CDf =  0.00802    CDp =  0.00890

 Side 1  free  transition at x/c =  0.3118   49
 Side 2 forced transition at x/c =  1.0001   74

   7   rms: 0.1580E-01   max: -.1265E+00   D at   82  1
       a =  5.000      CL =  1.3889
      Cm = -0.1423     CD =  0.01747   =>   CDf =  0.00771    CDp =  0.00977

 Side 1  free  transition at x/c =  0.3116   49
 Side 2 forced transition at x/c =  1.0001   74

   8   rms: 0.7932E-03   max: -.1037E-01   C at   74  2
       a =  5.000      CL =  1.3886
      Cm = -0.1423     CD =  0.01748   =>   CDf =  0.00772    CDp =  0.00976

 Side 1  free  transition at x/c =  0.3115   49
 Side 2 forced transition at x/c =  1.0001   74

   9   rms: 0.3045E-05   max: -.4334E-04   C at   74  2
       a =  5.000      CL =  1.3886
      Cm = -0.1423     CD =  0.01748   =>   CDf =  0.00772    CDp =  0.00976

 Point added to stored polar  1
 Point written to save file  000192M0.04.log                                 
 Dump file unspecified or not available
 Calculating wake trajectory ...
 Calculating source influence matrix ...

 Solving BL system ...

 Side 1  free  transition at x/c =  0.3115   49
 Side 2 forced transition at x/c =  1.0001   74

   1   rms: 0.1575E+00   max: -.3490E+00   C at   74  2
       a =  6.000      CL =  1.5023
      Cm = -0.1432     CD =  0.01871   =>   CDf =  0.00754    CDp =  0.01117

 MRCHDU: Convergence failed at  50  side 1    Res =  0.6442E+01
 MRCHDU: Convergence failed at  51  side 1    Res =  0.2421E+01
 MRCHDU: Convergence failed at  52  side 1    Res =  0.1842E+01
 MRCHDU: Convergence failed at  53  side 1    Res =  0.2207E+01
 MRCHDU: Convergence failed at  54  side 1    Res =  0.2823E+01
 MRCHDU: Convergence failed at  55  side 1    Res =  0.3475E+01
 MRCHDU: Convergence failed at  56  side 1    Res =  0.4150E+01
 MRCHDU: Convergence failed at  57  side 1    Res =  0.4792E+01
 MRCHDU: Convergence failed at  58  side 1    Res =  0.5299E+01
 MRCHDU: Convergence failed at  59  side 1    Res =  0.5341E+01
 MRCHDU: Convergence failed at  60  side 1    Res =  0.5207E+01
 MRCHDU: Convergence failed at  61  side 1    Res =  0.4940E+01
 MRCHDU: Convergence failed at  62  side 1    Res =  0.3456E+02
 MRCHDU: Convergence failed at  63  side 1    Res =  0.5632E+02
 MRCHDU: Convergence failed at  64  side 1    Res =  0.9049E+02
 MRCHDU: Convergence failed at  65  side 1    Res =  0.1157E+02
 MRCHDU: Convergence failed at  66  side 1    Res =  0.1104E+02
 MRCHDU: Convergence failed at  67  side 1    Res =  0.1147E+02
 MRCHDU: Convergence failed at  68  side 1    Res =  0.1457E+02
 MRCHDU: Convergence failed at  69  side 1    Res =  0.1544E+02
 MRCHDU: Convergence failed at  70  side 1    Res =  0.1628E+02
 MRCHDU: Convergence failed at  71  side 1    Res =  0.3069E+02
 MRCHDU: Convergence failed at  72  side 1    Res =  0.3153E+02
 MRCHDU: Convergence failed at  73  side 1    Res =  0.3230E+02
 MRCHDU: Convergence failed at  74  side 1    Res =  0.3316E+02
 MRCHDU: Convergence failed at  75  side 1    Res =  0.3257E+02
 MRCHDU: Convergence failed at  76  side 1    Res =  0.4333E+02
 MRCHDU: Convergence failed at  77  side 1    Res =  0.3381E+02
 MRCHDU: Convergence failed at  78  side 1    Res =  0.2345E+03
 MRCHDU: Convergence failed at  79  side 1    Res =  0.4726E+02
 MRCHDU: Convergence failed at  80  side 1    Res =  0.3018E+02
 MRCHDU: Convergence failed at  81  side 1    Res =  0.2168E+02
 MRCHDU: Convergence failed at  82  side 1    Res =  0.4364E+02
 MRCHDU: Convergence failed at  83  side 1    Res =  0.6826E+02
 MRCHDU: Convergence failed at  84  side 1    Res =  0.7105E+02
 MRCHDU: Convergence failed at  85  side 1    Res =  0.4269E+02
 MRCHDU: Convergence failed at  86  side 1    Res =  0.2421E+02
 MRCHDU: Convergence failed at  87  side 1    Res =  0.1730E+02
 MRCHDU: Convergence failed at  88  side 1    Res =  0.2034E+02
 MRCHDU: Convergence failed at  89  side 1    Res =  0.1053E+03
 Side 1  free  transition at x/c =  0.3000   49
 Side 2 forced transition at x/c =  1.0001   73

   2   rms: 0.1166E+01   max: 0.5600E+01   D at   75  2   RLX: 0.092
       a =  6.000      CL =  2.2694
      Cm = -0.4994     CD =  0.00445   =>   CDf =  0.00411    CDp =  0.00034

 MRCHDU: Convergence failed at  54  side 1    Res =  0.1101E+01
 MRCHDU: Convergence failed at  55  side 1    Res =  0.6463E+00
 Side 1  free  transition at x/c =  0.2948   49
 Side 2 forced transition at x/c =  1.0001   73

   3   rms: 0.3863E+00   max: -.5180E+00   C at   73  2   RLX: 0.530
       a =  6.000      CL =  1.7156
      Cm = -0.2457     CD =  0.02085   =>   CDf =  0.00721    CDp =  0.01364

 Side 1  free  transition at x/c =  0.3000   49
 Side 2 forced transition at x/c =  1.0001   73

   4   rms: 0.5666E+00   max: -.2949E+01   D at   59  1   RLX: 0.170
       a =  6.000      CL =  1.6660
      Cm = -0.2239     CD =  0.01951   =>   CDf =  0.00659    CDp =  0.01293

 Side 1  free  transition at x/c =  0.3037   49
 Side 2 forced transition at x/c =  1.0001   73

   5   rms: 0.3777E+00   max: -.2193E+01   D at   63  1   RLX: 0.228
       a =  6.000      CL =  1.6069
      Cm = -0.1988     CD =  0.01891   =>   CDf =  0.00714    CDp =  0.01177

 MRCHDU: Convergence failed at  61  side 1    Res =  0.5763E+00
 MRCHDU: Convergence failed at  62  side 1    Res =  0.2136E+00
 MRCHDU: Convergence failed at  63  side 1    Res =  0.2071E+01
 MRCHDU: Convergence failed at  64  side 1    Res =  0.9493E+00
 MRCHDU: Convergence failed at  65  side 1    Res =  0.7138E+00
 MRCHDU: Convergence failed at  66  side 1    Res =  0.6553E+00
 Side 1  free  transition at x/c =  0.3057   49
 Side 2 forced transition at x/c =  1.0001   73

   6   rms: 0.5115E+00   max: -.2220E+01   D at   78  1   RLX: 0.198
       a =  6.000      CL =  1.6600
      Cm = -0.2129     CD =  0.01880   =>   CDf =  0.00918    CDp =  0.00962

 MRCHDU: Convergence failed at  70  side 1    Res =  0.1034E+02
 MRCHDU: Convergence failed at  71  side 1    Res =  0.3012E+01
 MRCHDU: Convergence failed at  72  side 1    Res =  0.2679E+01
 MRCHDU: Convergence failed at  73  side 1    Res =  0.4521E+01
 MRCHDU: Convergence failed at  74  side 1    Res =  0.9428E+01
 MRCHDU: Convergence failed at  75  side 1    Res =  0.2925E+01
 MRCHDU: Convergence failed at  76  side 1    Res =  0.2761E+01
 MRCHDU: Convergence failed at  77  side 1    Res =  0.6310E+01
 MRCHDU: Convergence failed at  80  side 1    Res =  0.2578E+01
 MRCHDU: Convergence failed at  81  side 1    Res =  0.2052E+01
 MRCHDU: Convergence failed at  82  side 1    Res =  0.3050E+02
 MRCHDU: Convergence failed at  83  side 1    Res =  0.5251E+00
 MRCHDU: Convergence failed at  84  side 1    Res =  0.8245E+00
 Side 1  free  transition at x/c =  0.3074   50
 Side 2 forced transition at x/c =  1.0001   73

   7   rms: 0.2978E+00   max: -.3519E+00   C at   74  2   RLX: 0.411
       a =  6.000      CL =  1.6267
      Cm = -0.2166     CD =  0.01547   =>   CDf =  0.00881    CDp =  0.00666

 Side 1  free  transition at x/c =  0.3065   49
 Side 2 forced transition at x/c =  1.0001   73

   8   rms: 0.2057E+00   max: 0.8008E+00   C at   73  2   RLX: 0.776
       a =  6.000      CL =  1.5742
      Cm = -0.1673     CD =  0.01648   =>   CDf =  0.00877    CDp =  0.00771

 Side 1  free  transition at x/c =  0.2986   49
 Side 2 forced transition at x/c =  1.0001   73

   9   rms: 0.6468E-01   max: -.3581E+00   D at   88  1
       a =  6.000      CL =  1.5308
      Cm = -0.1491     CD =  0.01834   =>   CDf =  0.00809    CDp =  0.01025

 Side 1  free  transition at x/c =  0.2969   49
 Side 2 forced transition at x/c =  1.0001   73

  10   rms: 0.2526E-01   max: -.2018E+00   D at   88  1
       a =  6.000      CL =  1.5026
      Cm = -0.1433     CD =  0.01874   =>   CDf =  0.00782    CDp =  0.01092

 Side 1  free  transition at x/c =  0.2977   49
 Side 2 forced transition at x/c =  1.0001   73

  11   rms: 0.4011E-02   max: -.5511E-01   D at   88  1
       a =  6.000      CL =  1.4993
      Cm = -0.1426     CD =  0.01876   =>   CDf =  0.00776    CDp =  0.01099

 Side 1  free  transition at x/c =  0.2978   49
 Side 2 forced transition at x/c =  1.0001   73

  12   rms: 0.1610E-03   max: -.3183E-02   D at   88  1
       a =  6.000      CL =  1.4992
      Cm = -0.1426     CD =  0.01876   =>   CDf =  0.00776    CDp =  0.01100

 Side 1  free  transition at x/c =  0.2978   49
 Side 2 forced transition at x/c =  1.0001   73

  13   rms: 0.1371E-05   max: 0.1048E-04   C at   73  2
       a =  6.000      CL =  1.4992
      Cm = -0.1426     CD =  0.01876   =>   CDf =  0.00776    CDp =  0.01100

 Point added to stored polar  1
 Point written to save file  000192M0.04.log                                 
 Dump file unspecified or not available
 Calculating wake trajectory ...
 Calculating source influence matrix ...

 Solving BL system ...

 Side 1  free  transition at x/c =  0.2978   49
 Side 2 forced transition at x/c =  1.0001   73

   1   rms: 0.1495E+00   max: -.2769E+00   C at   73  2
       a =  7.000      CL =  1.6076
      Cm = -0.1425     CD =  0.01994   =>   CDf =  0.00755    CDp =  0.01239

 Side 1  free  transition at x/c =  0.2860   49
 Side 2 forced transition at x/c =  1.0001   72

   2   rms: 0.2587E-01   max: -.2047E+00   D at   49  1
       a =  7.000      CL =  1.6041
      Cm = -0.1419     CD =  0.02015   =>   CDf =  0.00781    CDp =  0.01234

 Side 1  free  transition at x/c =  0.2852   49
 Side 2 forced transition at x/c =  1.0001   72

   3   rms: 0.1228E-02   max: 0.8427E-02   D at   49  1
       a =  7.000      CL =  1.6049
      Cm = -0.1421     CD =  0.02019   =>   CDf =  0.00776    CDp =  0.01244

 Side 1  free  transition at x/c =  0.2850   49
 Side 2 forced transition at x/c =  1.0001   72

   4   rms: 0.1296E-04   max: -.6649E-04   D at    4  2
       a =  7.000      CL =  1.6049
      Cm = -0.1421     CD =  0.02019   =>   CDf =  0.00776    CDp =  0.01243

 Point added to stored polar  1
 Point written to save file  000192M0.04.log                                 
 Dump file unspecified or not available
 Calculating wake trajectory ...
 Calculating source influence matrix ...

 Solving BL system ...

 Side 1  free  transition at x/c =  0.2850   49
 Side 2 forced transition at x/c =  1.0001   72

   1   rms: 0.1459E+00   max: -.2428E+00   C at   72  2
       a =  8.000      CL =  1.7073
      Cm = -0.1411     CD =  0.02142   =>   CDf =  0.00731    CDp =  0.01411

 Side 1  free  transition at x/c =  0.2728   50
 Side 2 forced transition at x/c =  1.0001   70

   2   rms: 0.2186E-01   max: -.1589E+00   D at    4  1
       a =  8.000      CL =  1.7057
      Cm = -0.1409     CD =  0.02178   =>   CDf =  0.00781    CDp =  0.01397

 Side 1  free  transition at x/c =  0.2728   50
 Side 2 forced transition at x/c =  1.0001   70

   3   rms: 0.1688E-02   max: -.1828E-01   D at    4  1
       a =  8.000      CL =  1.7062
      Cm = -0.1410     CD =  0.02181   =>   CDf =  0.00776    CDp =  0.01405

 Side 1  free  transition at x/c =  0.2726   50
 Side 2 forced transition at x/c =  1.0001   70

   4   rms: 0.8082E-05   max: -.4503E-04   C at   70  2
       a =  8.000      CL =  1.7062
      Cm = -0.1410     CD =  0.02181   =>   CDf =  0.00776    CDp =  0.01405

 Point added to stored polar  1
 Point written to save file  000192M0.04.log                                 
 Dump file unspecified or not available
 Calculating wake trajectory ...
 Calculating source influence matrix ...

 Solving BL system ...

 Side 1  free  transition at x/c =  0.2726   50
 Side 2 forced transition at x/c =  1.0001   70

   1   rms: 0.1413E+00   max: -.2161E+00   C at   70  2
       a =  9.000      CL =  1.7995
      Cm = -0.1385     CD =  0.02310   =>   CDf =  0.00748    CDp =  0.01561

 Side 1  free  transition at x/c =  0.2596   51
 Side 2 forced transition at x/c =  1.0001   69

   2   rms: 0.2468E-01   max: -.2402E+00   D at   51  1
       a =  9.000      CL =  1.7983
      Cm = -0.1384     CD =  0.02333   =>   CDf =  0.00770    CDp =  0.01563

 Side 1  free  transition at x/c =  0.2606   51
 Side 2 forced transition at x/c =  1.0001   69

   3   rms: 0.2052E-02   max: 0.1142E-01   D at   51  1
       a =  9.000      CL =  1.8003
      Cm = -0.1388     CD =  0.02337   =>   CDf =  0.00763    CDp =  0.01575

 Side 1  free  transition at x/c =  0.2605   51
 Side 2 forced transition at x/c =  1.0001   69

   4   rms: 0.3041E-04   max: 0.7007E-04   D at   71  2
       a =  9.000      CL =  1.8002
      Cm = -0.1388     CD =  0.02337   =>   CDf =  0.00763    CDp =  0.01574

 Point added to stored polar  1
 Point written to save file  000192M0.04.log                                 
 Dump file unspecified or not available
 Calculating wake trajectory ...
 Calculating source influence matrix ...

 Solving BL system ...

 Side 1  free  transition at x/c =  0.2605   51
 Side 2 forced transition at x/c =  1.0001   69

   1   rms: 0.1468E+00   max: 0.1453E+00   D at   82  2
       a = 10.000      CL =  1.8966
      Cm = -0.1375     CD =  0.02581   =>   CDf =  0.00705    CDp =  0.01876

 MRCHDU: Convergence failed at  53  side 1    Res =  0.3583E+01
 MRCHDU: Convergence failed at  54  side 1    Res =  0.2411E+01
 MRCHDU: Convergence failed at  55  side 1    Res =  0.2438E+01
 MRCHDU: Convergence failed at  56  side 1    Res =  0.2761E+01
 MRCHDU: Convergence failed at  57  side 1    Res =  0.3410E+01
 MRCHDU: Convergence failed at  58  side 1    Res =  0.4141E+01
 MRCHDU: Convergence failed at  59  side 1    Res =  0.4926E+01
 MRCHDU: Convergence failed at  60  side 1    Res =  0.5574E+01
 MRCHDU: Convergence failed at  61  side 1    Res =  0.6029E+01
 MRCHDU: Convergence failed at  62  side 1    Res =  0.5493E+01
 MRCHDU: Convergence failed at  63  side 1    Res =  0.3411E+02
 MRCHDU: Convergence failed at  64  side 1    Res =  0.7415E+02
 MRCHDU: Convergence failed at  65  side 1    Res =  0.1131E+02
 MRCHDU: Convergence failed at  66  side 1    Res =  0.1411E+02
 MRCHDU: Convergence failed at  67  side 1    Res =  0.1962E+02
 MRCHDU: Convergence failed at  68  side 1    Res =  0.2290E+02
 MRCHDU: Convergence failed at  69  side 1    Res =  0.3044E+02
 MRCHDU: Convergence failed at  70  side 1    Res =  0.2398E+02
 MRCHDU: Convergence failed at  71  side 1    Res =  0.2066E+02
 MRCHDU: Convergence failed at  72  side 1    Res =  0.1912E+02
 MRCHDU: Convergence failed at  73  side 1    Res =  0.1913E+02
 MRCHDU: Convergence failed at  74  side 1    Res =  0.4177E+02
 MRCHDU: Convergence failed at  75  side 1    Res =  0.1585E+02
 MRCHDU: Convergence failed at  76  side 1    Res =  0.1637E+02
 MRCHDU: Convergence failed at  77  side 1    Res =  0.1688E+02
 MRCHDU: Convergence failed at  78  side 1    Res =  0.1861E+02
 MRCHDU: Convergence failed at  79  side 1    Res =  0.1957E+02
 MRCHDU: Convergence failed at  80  side 1    Res =  0.2086E+02
 MRCHDU: Convergence failed at  81  side 1    Res =  0.2319E+02
 MRCHDU: Convergence failed at  82  side 1    Res =  0.5766E+02
 MRCHDU: Convergence failed at  83  side 1    Res =  0.3880E+02
 MRCHDU: Convergence failed at  84  side 1    Res =  0.5449E+02
 MRCHDU: Convergence failed at  85  side 1    Res =  0.3444E+03
 MRCHDU: Convergence failed at  86  side 1    Res =  0.8910E+02
 MRCHDU: Convergence failed at  87  side 1    Res =  0.4861E+02
 MRCHDU: Convergence failed at  88  side 1    Res =  0.5430E+02
 MRCHDU: Convergence failed at  89  side 1    Res =  0.2173E+02
 MRCHDU: Convergence failed at  90  side 1    Res =  0.2000E+02
 MRCHDU: Convergence failed at  91  side 1    Res =  0.2333E+02
 MRCHDU: Convergence failed at  92  side 1    Res =  0.5450E+02
 MRCHDU: Convergence failed at  93  side 1    Res =  0.2772E+02
 MRCHDU: Convergence failed at  94  side 1    Res =  0.9034E+02
 MRCHDU: Convergence failed at  95  side 1    Res =  0.4090E+03
 Side 1  free  transition at x/c =  0.2502   52
 Side 2 forced transition at x/c =  1.0001   67

   2   rms: 0.1488E+01   max: 0.6879E+01   D at   69  2   RLX: 0.121
       a = 10.000      CL =  3.0121
      Cm = -0.6456     CD =  0.00513   =>   CDf =  0.00378    CDp =  0.00135

 MRCHDU: Convergence failed at  73  side 1    Res =  0.5843E-01
 MRCHDU: Convergence failed at  85  side 1    Res =  0.2787E-01
 MRCHDU: Convergence failed at  70  side 2    Res =  0.1090E+01
 Side 1  free  transition at x/c =  0.2431   52
 Side 2 forced transition at x/c =  1.0001   67

   3   rms: 0.4830E+00   max: -.6408E+00   U at   95  1   RLX: 0.467
       a = 10.000      CL =  2.3401
      Cm = -0.3252     CD =  0.02224   =>   CDf =  0.00882    CDp =  0.01342

 Side 1  free  transition at x/c =  0.2454   52
 Side 2 forced transition at x/c =  1.0001   67

   4   rms: 0.3692E+00   max: -.1587E+01   D at   67  1   RLX: 0.315
       a = 10.000      CL =  2.1874
      Cm = -0.2552     CD =  0.02184   =>   CDf =  0.00768    CDp =  0.01416

 Side 1  free  transition at x/c =  0.2476   52
 Side 2 forced transition at x/c =  1.0001   67

   5   rms: 0.4068E+00   max: -.2375E+01   D at   67  1   RLX: 0.211
       a = 10.000      CL =  2.1092
      Cm = -0.2254     CD =  0.02225   =>   CDf =  0.00749    CDp =  0.01477

 MRCHDU: Convergence failed at  64  side 1    Res =  0.4977E+00
 Side 1  free  transition at x/c =  0.2495   52
 Side 2 forced transition at x/c =  1.0001   67

   6   rms: 0.1016E+01   max: -.7434E+01   D at   85  1   RLX: 0.067
       a = 10.000      CL =  2.1531
      Cm = -0.2249     CD =  0.02170   =>   CDf =  0.00804    CDp =  0.01366

 Side 1  free  transition at x/c =  0.2481   52
 Side 2 forced transition at x/c =  1.0001   67

   7   rms: 0.4595E+00   max: -.1660E+01   D at   86  1   RLX: 0.234
       a = 10.000      CL =  2.1079
      Cm = -0.2012     CD =  0.02014   =>   CDf =  0.00828    CDp =  0.01186

 MRCHDU: Convergence failed at  75  side 1    Res =  0.2618E+00
 Side 1  free  transition at x/c =  0.2482   52
 Side 2 forced transition at x/c =  1.0001   67

   8   rms: 0.3617E+00   max: -.1218E+01   D at   90  1   RLX: 0.411
       a = 10.000      CL =  2.1633
      Cm = -0.2031     CD =  0.02029   =>   CDf =  0.00865    CDp =  0.01164

 MRCHDU: Convergence failed at  88  side 1    Res =  0.4997E+00
 MRCHDU: Convergence failed at  89  side 1    Res =  0.5354E+00
 MRCHDU: Convergence failed at  93  side 1    Res =  0.2046E+01
 MRCHDU: Convergence failed at  94  side 1    Res =  0.1418E+01
 MRCHDU: Convergence failed at  95  side 1    Res =  0.1951E+01
 MRCHDU: Convergence failed at  96  side 1    Res =  0.2520E+01
 Side 1  free  transition at x/c =  0.2412   52
 Side 2 forced transition at x/c =  1.0001   66

   9   rms: 0.2133E+00   max: 0.3409E+00   D at   84  2   RLX: 0.931
       a = 10.000      CL =  2.0270
      Cm = -0.1630     CD =  0.01976   =>   CDf =  0.00914    CDp =  0.01061

 MRCHDU: Convergence failed at  94  side 1    Res =  0.1111E+02
 MRCHDU: Convergence failed at  95  side 1    Res =  0.1474E+02
 Side 1  free  transition at x/c =  0.2421   51
 Side 2 forced transition at x/c =  1.0001   67

  10   rms: 0.1577E+00   max: -.1579E+01   D at    2  2   RLX: 0.317
       a = 10.000      CL =  1.9959
      Cm = -0.1601     CD =  0.02042   =>   CDf =  0.00770    CDp =  0.01271

 Side 1  free  transition at x/c =  0.2442   52
 Side 2 forced transition at x/c =  1.0001   67

  11   rms: 0.9183E-01   max: -.3366E+00   C at   67  2
       a = 10.000      CL =  1.8993
      Cm = -0.1378     CD =  0.02447   =>   CDf =  0.00766    CDp =  0.01681

 Side 1  free  transition at x/c =  0.2478   52
 Side 2 forced transition at x/c =  1.0001   67

  12   rms: 0.1091E-01   max: -.6467E-01   D at   90  1
       a = 10.000      CL =  1.8859
      Cm = -0.1354     CD =  0.02531   =>   CDf =  0.00739    CDp =  0.01791

 Side 1  free  transition at x/c =  0.2485   52
 Side 2 forced transition at x/c =  1.0001   67

  13   rms: 0.5448E-03   max: -.5879E-02   D at   52  1
       a = 10.000      CL =  1.8857
      Cm = -0.1354     CD =  0.02531   =>   CDf =  0.00736    CDp =  0.01795

 Side 1  free  transition at x/c =  0.2486   52
 Side 2 forced transition at x/c =  1.0001   67

  14   rms: 0.2085E-04   max: -.7925E-04   D at   90  1
       a = 10.000      CL =  1.8857
      Cm = -0.1354     CD =  0.02531   =>   CDf =  0.00735    CDp =  0.01795

 Point added to stored polar  1
 Point written to save file  000192M0.04.log                                 
 Dump file unspecified or not available
 Calculating wake trajectory ...
 Calculating source influence matrix ...

 Solving BL system ...

 Side 1  free  transition at x/c =  0.2486   52
 Side 2 forced transition at x/c =  1.0001   67

   1   rms: 0.1356E+00   max: 0.1445E+00   D at   76  2
       a = 11.000      CL =  1.9677
      Cm = -0.1316     CD =  0.02717   =>   CDf =  0.00701    CDp =  0.02017

 Side 1  free  transition at x/c =  0.2279   52
 Side 2 forced transition at x/c =  1.0001   66

   2   rms: 0.8348E-01   max: -.6038E+00   D at   52  1   RLX: 0.828
       a = 11.000      CL =  1.9464
      Cm = -0.1280     CD =  0.02783   =>   CDf =  0.00718    CDp =  0.02064

 Side 1  free  transition at x/c =  0.2323   52
 Side 2 forced transition at x/c =  1.0001   66

   3   rms: 0.1818E-01   max: -.2056E+00   D at   52  1
       a = 11.000      CL =  1.9472
      Cm = -0.1281     CD =  0.02707   =>   CDf =  0.00718    CDp =  0.01989

 Side 1  free  transition at x/c =  0.2327   52
 Side 2 forced transition at x/c =  1.0001   66

   4   rms: 0.1879E-02   max: 0.8877E-02   T at   52  1
       a = 11.000      CL =  1.9491
      Cm = -0.1284     CD =  0.02708   =>   CDf =  0.00716    CDp =  0.01992

 Side 1  free  transition at x/c =  0.2325   52
 Side 2 forced transition at x/c =  1.0001   66

   5   rms: 0.1856E-04   max: 0.1918E-03   D at   95  1
       a = 11.000      CL =  1.9491
      Cm = -0.1284     CD =  0.02708   =>   CDf =  0.00716    CDp =  0.01991

 Point added to stored polar  1
 Point written to save file  000192M0.04.log                                 
 Dump file unspecified or not available
 Calculating wake trajectory ...
 Calculating source influence matrix ...

 Solving BL system ...

 Side 1  free  transition at x/c =  0.2325   52
 Side 2 forced transition at x/c =  1.0001   66

   1   rms: 0.1265E+00   max: 0.4136E+00   T at   52  1
       a = 12.000      CL =  2.0046
      Cm = -0.1205     CD =  0.02933   =>   CDf =  0.00678    CDp =  0.02255

 Side 1  free  transition at x/c =  0.2110   51
 Side 2 forced transition at x/c =  1.0001   65

   2   rms: 0.7408E-01   max: -.6730E+00   D at   52  1   RLX: 0.743
       a = 12.000      CL =  1.9934
      Cm = -0.1196     CD =  0.03047   =>   CDf =  0.00698    CDp =  0.02349

 Side 1  free  transition at x/c =  0.2165   52
 Side 2 forced transition at x/c =  1.0001   65

   3   rms: 0.1018E-01   max: -.1492E+00   D at   53  1
       a = 12.000      CL =  1.9929
      Cm = -0.1194     CD =  0.02967   =>   CDf =  0.00691    CDp =  0.02276

 Side 1  free  transition at x/c =  0.2145   52
 Side 2 forced transition at x/c =  1.0001   65

   4   rms: 0.1120E-02   max: -.1857E-01   D at   53  1
       a = 12.000      CL =  1.9926
      Cm = -0.1194     CD =  0.02976   =>   CDf =  0.00700    CDp =  0.02276

 Side 1  free  transition at x/c =  0.2144   52
 Side 2 forced transition at x/c =  1.0001   65

   5   rms: 0.2702E-04   max: -.3169E-03   D at   53  1
       a = 12.000      CL =  1.9927
      Cm = -0.1194     CD =  0.02976   =>   CDf =  0.00700    CDp =  0.02276

 Point added to stored polar  1
 Point written to save file  000192M0.04.log                                 
 Dump file unspecified or not available
 Calculating wake trajectory ...
 Calculating source influence matrix ...

 Solving BL system ...

 Side 1  free  transition at x/c =  0.2144   52
 Side 2 forced transition at x/c =  1.0001   65

   1   rms: 0.1358E+00   max: -.6679E+00   D at   52  1   RLX: 0.749
       a = 13.000      CL =  2.0150
      Cm = -0.1122     CD =  0.03300   =>   CDf =  0.00658    CDp =  0.02641

 Side 1  free  transition at x/c =  0.2020   52
 Side 2 forced transition at x/c =  1.0001   64

   2   rms: 0.4924E-01   max: -.4413E+00   D at   52  1
       a = 13.000      CL =  2.0254
      Cm = -0.1110     CD =  0.03350   =>   CDf =  0.00673    CDp =  0.02678

 Side 1  free  transition at x/c =  0.1975   51
 Side 2 forced transition at x/c =  1.0001   64

   3   rms: 0.7081E-02   max: -.5215E-01   D at   53  1
       a = 13.000      CL =  2.0247
      Cm = -0.1112     CD =  0.03415   =>   CDf =  0.00669    CDp =  0.02746

 Side 1  free  transition at x/c =  0.1954   51
 Side 2 forced transition at x/c =  1.0001   64

   4   rms: 0.3245E-03   max: -.3298E-02   C at   51  1
       a = 13.000      CL =  2.0244
      Cm = -0.1111     CD =  0.03419   =>   CDf =  0.00669    CDp =  0.02750

 Side 1  free  transition at x/c =  0.1954   51
 Side 2 forced transition at x/c =  1.0001   64

   5   rms: 0.8899E-05   max: -.3241E-04   D at   86  1
       a = 13.000      CL =  2.0244
      Cm = -0.1111     CD =  0.03419   =>   CDf =  0.00669    CDp =  0.02750

 Point added to stored polar  1
 Point written to save file  000192M0.04.log                                 
 Dump file unspecified or not available
 Calculating wake trajectory ...
 Calculating source influence matrix ...

 Solving BL system ...

 Side 1  free  transition at x/c =  0.1954   51
 Side 2 forced transition at x/c =  1.0001   64

   1   rms: 0.1296E+00   max: 0.3696E+00   T at   51  1   RLX: 0.817
       a = 14.000      CL =  2.0578
      Cm = -0.1065     CD =  0.03822   =>   CDf =  0.00624    CDp =  0.03197

 Side 1  free  transition at x/c =  0.1721   51
 Side 2 forced transition at x/c =  1.0001   63

   2   rms: 0.4825E-01   max: -.4527E+00   D at   51  1
       a = 14.000      CL =  2.0288
      Cm = -0.1046     CD =  0.04239   =>   CDf =  0.00660    CDp =  0.03579

 Side 1  free  transition at x/c =  0.1762   51
 Side 2 forced transition at x/c =  1.0001   63

   3   rms: 0.1032E-01   max: 0.1333E+00   C at   51  1
       a = 14.000      CL =  2.0292
      Cm = -0.1049     CD =  0.04255   =>   CDf =  0.00631    CDp =  0.03624

 Side 1  free  transition at x/c =  0.1734   51
 Side 2 forced transition at x/c =  1.0001   63

   4   rms: 0.1067E-02   max: 0.4525E-02   D at   75  2
       a = 14.000      CL =  2.0283
      Cm = -0.1048     CD =  0.04259   =>   CDf =  0.00637    CDp =  0.03622

 Side 1  free  transition at x/c =  0.1735   51
 Side 2 forced transition at x/c =  1.0001   63

   5   rms: 0.1133E-04   max: 0.1846E-03   D at   75  2
       a = 14.000      CL =  2.0283
      Cm = -0.1048     CD =  0.04259   =>   CDf =  0.00637    CDp =  0.03622

 Point added to stored polar  1
 Point written to save file  000192M0.04.log                                 
 Dump file unspecified or not available
 Calculating wake trajectory ...
 Calculating source influence matrix ...

 Solving BL system ...

 Side 1  free  transition at x/c =  0.1735   51
 Side 2 forced transition at x/c =  1.0001   63

   1   rms: 0.1725E+00   max: 0.6891E+00   D at   84  1   RLX: 0.635
       a = 15.000      CL =  2.0117
      Cm = -0.1032     CD =  0.05200   =>   CDf =  0.00639    CDp =  0.04562

 Side 1  free  transition at x/c =  0.1594   50
 Side 2 forced transition at x/c =  1.0001   63

   2   rms: 0.9514E-01   max: 0.5392E+00   D at   82  1
       a = 15.000      CL =  1.9922
      Cm = -0.1072     CD =  0.06151   =>   CDf =  0.00620    CDp =  0.05531

 Side 1  free  transition at x/c =  0.1529   49
 Side 2 forced transition at x/c =  1.0001   63

   3   rms: 0.2487E-01   max: 0.1914E+00   D at   76  1
       a = 15.000      CL =  1.9858
      Cm = -0.1078     CD =  0.06187   =>   CDf =  0.00598    CDp =  0.05588

 Side 1  free  transition at x/c =  0.1534   49
 Side 2 forced transition at x/c =  1.0001   63

   4   rms: 0.3955E-02   max: 0.3152E-01   D at   74  1
       a = 15.000      CL =  1.9834
      Cm = -0.1075     CD =  0.06166   =>   CDf =  0.00592    CDp =  0.05574

 Side 1  free  transition at x/c =  0.1538   49
 Side 2 forced transition at x/c =  1.0001   63

   5   rms: 0.2186E-03   max: 0.1177E-02   D at   76  2
       a = 15.000      CL =  1.9832
      Cm = -0.1075     CD =  0.06164   =>   CDf =  0.00591    CDp =  0.05573

 Side 1  free  transition at x/c =  0.1539   49
 Side 2 forced transition at x/c =  1.0001   63

   6   rms: 0.1134E-04   max: 0.6292E-04   D at   76  2
       a = 15.000      CL =  1.9832
      Cm = -0.1075     CD =  0.06164   =>   CDf =  0.00591    CDp =  0.05573

 Point added to stored polar  1
 Point written to save file  000192M0.04.log                                 
 Dump file unspecified or not available

.OPERva   c>  
 XFOIL   c>  
0.1
resp: 
 ===================================================
  XFOIL Version 6.97
  Copyright (C) 2000   Mark Drela, Harold Youngren

  This software comes with ABSOLUTELY NO WARRANTY,
    subject to the GNU General Public License.

  Caveat computor
 ===================================================

 File  xfoil.def  not found

   QUIT    Exit program

  .OPER    Direct operating point(s)
  .MDES    Complex mapping design routine
  .QDES    Surface speed design routine
  .GDES    Geometry design routine

   SAVE f  Write airfoil to labeled coordinate file
   PSAV f  Write airfoil to plain coordinate file
   ISAV f  Write airfoil to ISES coordinate file
   MSAV f  Write airfoil to MSES coordinate file
   REVE    Reverse written-airfoil node ordering
   DELI i  Change written-airfoil file delimiters

   LOAD f  Read buffer airfoil from coordinate file
   NACA i  Set NACA 4,5-digit airfoil and buffer airfoil
   INTE    Set buffer airfoil by interpolating two airfoils
   NORM    Buffer airfoil normalization toggle
   HALF    Halve the number of points in buffer airfoil
   XYCM rr Change CM reference location, currently  0.25000 0.00000

   BEND    Display structural properties of current airfoil

   PCOP    Set current-airfoil panel nodes directly from buffer airfoil points
   PANE    Set current-airfoil panel nodes ( 160 ) based on curvature
  .PPAR    Show/change paneling

  .PLOP    Plotting options

   WDEF f  Write  current-settings file
   RDEF f  Reread current-settings file
   NAME s  Specify new airfoil name
   NINC    Increment name version number

   Z       Zoom    | (available in all menus)
   U       Unzoom  | 

 XFOIL   c>   ...............................................

  G raphics-enable flag:        T
  S ize of plot object          10.00"
  A spect ratio of plot object   0.5500
  P age dimensions              11.00 x  8.50"
  M argins from page edges       0.00",  0.00"
  F ont size (relative)          0.0150
  W indow/screen size fraction   0.8000
  B lowup input method:        Cursor    
  O rientation of plot:        Landscape 
  C olor PostScript output?     F

      Option, Value   (or <Return>)    c>   ...............................................

  G raphics-enable flag:        F
  S ize of plot object          10.00"
  A spect ratio of plot object   0.5500
  P age dimensions              11.00 x  8.50"
  M argins from page edges       0.00",  0.00"
  F ont size (relative)          0.0150
  W indow/screen size fraction   0.8000
  B lowup input method:        Cursor    
  O rientation of plot:        Landscape 
  C olor PostScript output?     F

      Option, Value   (or <Return>)    c>  
 XFOIL   c>  
 Labeled airfoil file.  Name:  000192                                          

 Number of input coordinate points: 200
 Clockwise ordering
 Max thickness =     0.127534  at x =   0.181
 Max camber    =     0.072260  at x =   0.287

  LE  x,y  =  -0.00005   0.00151  |   Chord =   0.99992
  TE  x,y  =   0.99988   0.00006  |

 Current airfoil nodes set from buffer airfoil nodes ( 200 )

 XFOIL   c>  
 You are working with the buffer airfoil

.GDES   c>  
  i       x        y      angle
   2   0.9990   0.0005    0.078
   3   0.9978   0.0011    0.196
   4   0.9961   0.0019    0.250
   5   0.9938   0.0029    0.319
   6   0.9911   0.0041    0.350
   7   0.9880   0.0056    0.407
   8   0.9843   0.0072    0.472
   9   0.9801   0.0090    0.512
  10   0.9755   0.0109    0.554
  11   0.9704   0.0130    0.597
  12   0.9649   0.0152    0.642
  13   0.9589   0.0175    0.652
  14   0.9524   0.0199    0.700
  15   0.9455   0.0224    0.703
  16   0.9382   0.0249    0.719
  17   0.9304   0.0275    0.736
  18   0.9222   0.0301    0.733
  19   0.9135   0.0327    0.725
  20   0.9045   0.0353    0.714
  21   0.8951   0.0379    0.705
  22   0.8853   0.0405    0.678
  23   0.8751   0.0430    0.652
  24   0.8645   0.0455    0.613
  25   0.8536   0.0480    0.589
  26   0.8423   0.0504    0.538
  27   0.8307   0.0528    0.498
  28   0.8187   0.0552    0.449
  29   0.8065   0.0575    0.402
  30   0.7939   0.0598    0.356
  31   0.7810   0.0620    0.303
  32   0.7679   0.0642    0.256
  33   0.7545   0.0664    0.202
  34   0.7409   0.0686    0.162
  35   0.7270   0.0708    0.116
  36   0.7129   0.0730    0.070
  37   0.6986   0.0752    0.040
  38   0.6841   0.0775    0.003
  39   0.6694   0.0797   -0.027
  40   0.6545   0.0820   -0.047
  41   0.6395   0.0843   -0.068
  42   0.6243   0.0867   -0.077
  43   0.6091   0.0891   -0.087
  44   0.5937   0.0916   -0.087
  45   0.5782   0.0941   -0.078
  46   0.5627   0.0966   -0.071
  47   0.5471   0.0991   -0.048
  48   0.5314   0.1017   -0.024
  49   0.5157   0.1043    0.005
  50   0.5000   0.1069    0.039
  51   0.4843   0.1095    0.084
  52   0.4686   0.1120    0.132
  53   0.4529   0.1145    0.185
  54   0.4373   0.1170    0.238
  55   0.4218   0.1193    0.298
  56   0.4063   0.1216    0.370
  57   0.3909   0.1238    0.434
  58   0.3757   0.1258    0.509
  59   0.3605   0.1277    0.582
  60   0.3455   0.1294    0.662
  61   0.3306   0.1309    0.737
  62   0.3159   0.1322    0.823
  63   0.3014   0.1333    0.902
  64   0.2871   0.1342    0.987
  65   0.2730   0.1347    1.071
  66   0.2591   0.1351    1.153
  67   0.2455   0.1351    1.238
  68   0.2321   0.1348    1.312
  69   0.2190   0.1343    1.399
  70   0.2061   0.1334    1.474
  71   0.1935   0.1323    1.548
  72   0.1813   0.1308    1.628
  73   0.1693   0.1290    1.693
  74   0.1577   0.1270    1.770
  75   0.1464   0.1246    1.836
  76   0.1355   0.1219    1.900
  77   0.1249   0.1189    1.969
  78   0.1147   0.1157    2.036
  79   0.1049   0.1122    2.108
  80   0.0955   0.1084    2.165
  81   0.0865   0.1044    2.251
  82   0.0778   0.1002    2.324
  83   0.0696   0.0957    2.414
  84   0.0618   0.0911    2.495
  85   0.0545   0.0862    2.596
  86   0.0476   0.0812    2.718
  87   0.0411   0.0760    2.831
  88   0.0351   0.0707    2.968
  89   0.0296   0.0652    3.109
  90   0.0245   0.0597    3.266
  91   0.0199   0.0540    3.439
  92   0.0157   0.0482    3.617
  93   0.0120   0.0423    3.784
  94   0.0089   0.0364    3.975
  95   0.0062   0.0304    4.139
  96   0.0039   0.0244    4.289
  97   0.0022   0.0183    4.435
  98   0.0010   0.0122    4.524
  99   0.0002   0.0061    4.591
 100   0.0000   0.0000   10.844
 101   0.0002  -0.0016   16.016
 102   0.0010  -0.0033   13.571
 103   0.0022  -0.0048   10.928
 104   0.0039  -0.0063    8.650
 105   0.0062  -0.0077    6.953
 106   0.0089  -0.0090    5.627
 107   0.0120  -0.0102    4.651
 108   0.0157  -0.0111    3.905
 109   0.0199  -0.0120    3.324
 110   0.0245  -0.0126    2.830
 111   0.0296  -0.0130    2.431
 112   0.0351  -0.0133    2.092
 113   0.0411  -0.0133    1.789
 114   0.0476  -0.0132    1.530
 115   0.0545  -0.0129    1.291
 116   0.0618  -0.0123    1.089
 117   0.0696  -0.0116    0.886
 118   0.0778  -0.0107    0.705
 119   0.0865  -0.0097    0.552
 120   0.0955  -0.0085    0.398
 121   0.1049  -0.0073    0.262
 122   0.1147  -0.0059    0.129
 123   0.1249  -0.0044    0.021
 124   0.1355  -0.0029   -0.090
 125   0.1464  -0.0013   -0.181
 126   0.1577   0.0002   -0.266
 127   0.1693   0.0018   -0.338
 128   0.1813   0.0033   -0.410
 129   0.1935   0.0048   -0.457
 130   0.2061   0.0062   -0.505
 131   0.2190   0.0075   -0.535
 132   0.2321   0.0088   -0.559
 133   0.2455   0.0099   -0.577
 134   0.2591   0.0109   -0.574
 135   0.2730   0.0118   -0.576
 136   0.2871   0.0126   -0.565
 137   0.3014   0.0132   -0.535
 138   0.3159   0.0137   -0.515
 139   0.3306   0.0141   -0.475
 140   0.3455   0.0143   -0.434
 141   0.3605   0.0145   -0.399
 142   0.3757   0.0145   -0.339
 143   0.3909   0.0145   -0.297
 144   0.4063   0.0144   -0.238
 145   0.4218   0.0142   -0.181
 146   0.4373   0.0139   -0.136
 147   0.4529   0.0137   -0.074
 148   0.4686   0.0134   -0.023
 149   0.4843   0.0131    0.023
 150   0.5000   0.0128    0.073
 151   0.5157   0.0125    0.109
 152   0.5314   0.0122    0.156
 153   0.5471   0.0120    0.178
 154   0.5627   0.0119    0.211
 155   0.5782   0.0118    0.228
 156   0.5937   0.0117    0.241
 157   0.6091   0.0118    0.248
 158   0.6243   0.0119    0.249
 159   0.6395   0.0120    0.242
 160   0.6545   0.0122    0.224
 161   0.6694   0.0125    0.207
 162   0.6841   0.0128    0.182
 163   0.6986   0.0132    0.140
 164   0.7129   0.0136    0.109
 165   0.7270   0.0140    0.060
 166   0.7409   0.0145    0.010
 167   0.7545   0.0149   -0.044
 168   0.7679   0.0153   -0.096
 169   0.7810   0.0157   -0.161
 170   0.7939   0.0160   -0.217
 171   0.8065   0.0163   -0.287
 172   0.8187   0.0165   -0.339
 173   0.8307   0.0166   -0.411
 174   0.8423   0.0167   -0.461
 175   0.8536   0.0166   -0.532
 176   0.8645   0.0165   -0.573
 177   0.8751   0.0162   -0.632
 178   0.8853   0.0159   -0.676
 179   0.8951   0.0154   -0.710
 180   0.9045   0.0149   -0.754
 181   0.9135   0.0142   -0.775
 182   0.9222   0.0135   -0.794
 183   0.9304   0.0126   -0.810
 184   0.9382   0.0118   -0.816
 185   0.9455   0.0108   -0.800
 186   0.9524   0.0098   -0.796
 187   0.9589   0.0088   -0.769
 188   0.9649   0.0078   -0.753
 189   0.9704   0.0068   -0.711
 190   0.9755   0.0058   -0.672
 191   0.9801   0.0048   -0.623
 192   0.9843   0.0039   -0.574
 193   0.9880   0.0030   -0.493
 194   0.9911   0.0023   -0.455
 195   0.9938   0.0016   -0.366
 196   0.9961   0.0010   -0.307
 197   0.9978   0.0006   -0.236
 198   0.9990   0.0003   -0.115
 199   0.9998   0.0001   -0.197

 Maximum panel corner angle = 16.016   at  i,x,y  = 101   0.0002  -0.0016

 Enter corner angle criterion for refinement (deg):   8.008
 Enter type of spline parameter (1=uniform, 2=arclength):   1
 Enter refinement x limits:  -0.10000   1.10000
 Number of points added:           10
 Max thickness =     0.127505  at x =   0.181
 Max camber    =     0.073468  at x =   0.287

 Maximum panel corner angle = 14.232   at  i,x,y  = 103   0.0001  -0.0014

.GDES   c>  
 Buffer airfoil is not identical to current airfoil

 XFOIL   c>  
 Blunt trailing edge.  Gap =  0.00027

 Paneling parameters used...
   Number of panel nodes       160
   Panel bunching parameter    1.000
   TE/LE panel density ratio   0.150
   Refined-area/LE panel density ratio    0.200
   Top    side refined area x/c limits  1.000 1.000
   Bottom side refined area x/c limits  1.000 1.000

 XFOIL   c>  
.OPERi   c>   Current iteration limit:          20

Enter new iteration limit   i>  
Enter new iteration limit   i>  
Enter new iteration limit   i>  
.OPERi   c>  
 M  =    0.0000
 Re =  0.3000E+06

.OPERv   c>  
 Sonic Cp =    -66.86      Sonic Q/Qinf =     9.138


.OPERv   c>  
 Polar  1 newly created for accumulation
 Airfoil archived with polar: 000192                                          

Enter  polar save filename  OR  <return> for no file   s>  
 New polar save file available

Enter  polar dump filename  OR  <return> for no file   s>  
 Polar dump file will NOT be written

 Polar accumulation enabled

.OPERva   c>   Calculating unit vorticity distributions ...
 Calculating wake trajectory ...
 Calculating source influence matrix ...

 Solving BL system ...

 Initializing BL ...
    side            1  ...
 MRCHUE: Inverse mode at  42     Hk =   4.459
 MRCHUE: Inverse mode at  43     Hk =   5.374
 MRCHUE: Inverse mode at  44     Hk =   6.272
 MRCHUE: Inverse mode at  45     Hk =   7.158
 MRCHUE: Inverse mode at  46     Hk =   8.039
 MRCHUE: Inverse mode at  47     Hk =   8.918
 MRCHUE: Inverse mode at  48     Hk =   7.687
 MRCHUE: Inverse mode at  49     Hk =   4.350
 MRCHUE: Inverse mode at  50     Hk =   2.500
 MRCHUE: Convergence failed at  86  side 1    Res =  0.5735E+01
    side            2  ...
 MRCHUE: Inverse mode at  26     Hk =   4.177
 MRCHUE: Inverse mode at  27     Hk =   5.030
 MRCHUE: Inverse mode at  28     Hk =   5.875
 MRCHUE: Inverse mode at  29     Hk =   6.702
 MRCHUE: Inverse mode at  30     Hk =   7.507
 MRCHUE: Inverse mode at  31     Hk =   8.286
 MRCHUE: Inverse mode at  32     Hk =   9.043
 MRCHUE: Inverse mode at  33     Hk =   9.173
 MRCHUE: Inverse mode at  34     Hk =   5.878
 MRCHUE: Inverse mode at  35     Hk =   4.217
 MRCHUE: Inverse mode at  36     Hk =   3.073

 MRCHDU: Convergence failed at  86  side 1    Res =  0.6760E+01
 Side 1  free  transition at x/c =  0.3352   48
 Side 2  free  transition at x/c =  0.2382   33

   1   rms: 0.2996E+00   max: -.1324E+01   D at   76  2   RLX: 0.378
       a =  2.000      CL =  1.1887
      Cm = -0.1697     CD =  0.01191   =>   CDf =  0.00945    CDp =  0.00245

 Side 1  free  transition at x/c =  0.3411   48
 Side 2  free  transition at x/c =  0.2450   35

   2   rms: 0.1825E+00   max: -.9025E+00   T at   48  1   RLX: 0.554
       a =  2.000      CL =  1.1152
      Cm = -0.1549     CD =  0.01301   =>   CDf =  0.00923    CDp =  0.00378

 Side 1  free  transition at x/c =  0.3498   48
 Side 2  free  transition at x/c =  0.2486   35

   3   rms: 0.6506E-01   max: -.4834E+00   D at   37  2
       a =  2.000      CL =  1.0853
      Cm = -0.1496     CD =  0.01606   =>   CDf =  0.00897    CDp =  0.00710

 Side 1  free  transition at x/c =  0.3533   47
 Side 2  free  transition at x/c =  0.2539   36

   4   rms: 0.6599E-02   max: -.1066E+00   D at   38  2
       a =  2.000      CL =  1.0861
      Cm = -0.1497     CD =  0.01620   =>   CDf =  0.00873    CDp =  0.00746

 Side 1  free  transition at x/c =  0.3525   47
 Side 2  free  transition at x/c =  0.2517   36

   5   rms: 0.1395E-02   max: -.1424E-01   D at    4  2
       a =  2.000      CL =  1.0861
      Cm = -0.1497     CD =  0.01620   =>   CDf =  0.00873    CDp =  0.00746

 Side 1  free  transition at x/c =  0.3525   47
 Side 2  free  transition at x/c =  0.2516   36

   6   rms: 0.2054E-05   max: -.2078E-04   D at    5  2
       a =  2.000      CL =  1.0861
      Cm = -0.1497     CD =  0.01620   =>   CDf =  0.00873    CDp =  0.00746

 Point added to stored polar  1
 Point written to save file  000192M0.1.log                                  
 Dump file unspecified or not available
 Calculating wake trajectory ...
 Calculating source influence matrix ...

 Solving BL system ...

 Side 1  free  transition at x/c =  0.3525   47
 Side 2  free  transition at x/c =  0.2516   36

   1   rms: 0.2784E+00   max: -.3439E+01   C at   36  2   RLX: 0.145
       a =  3.000      CL =  1.1038
      Cm = -0.1500     CD =  0.01621   =>   CDf =  0.00860    CDp =  0.00761

 Side 1  free  transition at x/c =  0.3502   48
 Side 2  free  transition at x/c =  0.2770   37

   2   rms: 0.4309E+00   max: -.4973E+01   C at   37  2   RLX: 0.101
       a =  3.000      CL =  1.1166
      Cm = -0.1507     CD =  0.01618   =>   CDf =  0.00872    CDp =  0.00746

 Side 1  free  transition at x/c =  0.3487   48
 Side 2  free  transition at x/c =  0.2979   38

   3   rms: 0.5364E+00   max: -.8560E+01   C at   38  2   RLX: 0.058
       a =  3.000      CL =  1.1239
      Cm = -0.1512     CD =  0.01622   =>   CDf =  0.00868    CDp =  0.00754

 Side 1  free  transition at x/c =  0.3480   48
 Side 2  free  transition at x/c =  0.3099   38

   4   rms: 0.2086E+00   max: -.2296E+01   T at   38  2   RLX: 0.218
       a =  3.000      CL =  1.1425
      Cm = -0.1512     CD =  0.01634   =>   CDf =  0.00868    CDp =  0.00766

 MRCHDU: Convergence failed at  67  side 2    Res =  0.2834E+01
 MRCHDU: Convergence failed at  68  side 2    Res =  0.5120E+01
 MRCHDU: Convergence failed at  69  side 2    Res =  0.4832E+01
 MRCHDU: Convergence failed at  70  side 2    Res =  0.4521E+01
 MRCHDU: Convergence failed at  71  side 2    Res =  0.4289E+01
 MRCHDU: Convergence failed at  72  side 2    Res =  0.3935E+01
 MRCHDU: Convergence failed at  73  side 2    Res =  0.3601E+01
 MRCHDU: Convergence failed at  74  side 2    Res =  0.3555E+01
 Side 1  free  transition at x/c =  0.3456   48
 Side 2  free  transition at x/c =  0.8477   67

   5   rms: 0.1729E+00   max: 0.8849E+00   C at   71  2   RLX: 0.788
       a =  3.000      CL =  1.1815
      Cm = -0.1468     CD =  0.01583   =>   CDf =  0.00722    CDp =  0.00861

 Side 1  free  transition at x/c =  0.3401   48
 Side 2  free  transition at x/c =  0.9341   71

   6   rms: 0.3503E-01   max: -.3345E+00   C at   71  2
       a =  3.000      CL =  1.1764
      Cm = -0.1438     CD =  0.01586   =>   CDf =  0.00754    CDp =  0.00832

 Side 1  free  transition at x/c =  0.3385   48
 Side 2  free  transition at x/c =  0.9278   71

   7   rms: 0.2387E-02   max: 0.3110E-01   C at   71  2
       a =  3.000      CL =  1.1773
      Cm = -0.1440     CD =  0.01588   =>   CDf =  0.00746    CDp =  0.00841

 Side 1  free  transition at x/c =  0.3385   48
 Side 2  free  transition at x/c =  0.9264   71

   8   rms: 0.6844E-04   max: -.1059E-02   D at   71  2
       a =  3.000      CL =  1.1773
      Cm = -0.1440     CD =  0.01588   =>   CDf =  0.00747    CDp =  0.00841

 Point added to stored polar  1
 Point written to save file  000192M0.1.log                                  
 Dump file unspecified or not available
 Calculating wake trajectory ...
 Calculating source influence matrix ...

 Solving BL system ...

 Side 1  free  transition at x/c =  0.3385   48
 Side 2  free  transition at x/c =  0.9264   71

   1   rms: 0.1734E+00   max: -.1753E+01   C at   71  2   RLX: 0.285
       a =  4.000      CL =  1.1926
      Cm = -0.1400     CD =  0.01575   =>   CDf =  0.00748    CDp =  0.00827

 Side 1  free  transition at x/c =  0.3347   48
 Side 2  free  transition at x/c =  0.9502   72

   2   rms: 0.1185E+00   max: -.8235E+00   T at   72  2   RLX: 0.607
       a =  4.000      CL =  1.2336
      Cm = -0.1383     CD =  0.01601   =>   CDf =  0.00743    CDp =  0.00858

 MRCHDU: Convergence failed at  76  side 2    Res =  0.1104E+00
 Side 1  free  transition at x/c =  0.3286   48
 Side 2  free  transition at x/c =  0.9934   76

   3   rms: 0.1602E+00   max: -.2496E+01   C at   76  2   RLX: 0.200
       a =  4.000      CL =  1.2375
      Cm = -0.1395     CD =  0.01673   =>   CDf =  0.00743    CDp =  0.00930

 Side 1  free  transition at x/c =  0.3281   48
 Side 2 forced transition at x/c =  1.0001   76

   4   rms: 0.5327E+00   max: -.7288E+01   C at   76  2   RLX: 0.069
       a =  4.000      CL =  1.2182
      Cm = -0.1353     CD =  0.01703   =>   CDf =  0.00744    CDp =  0.00959

 Side 1  free  transition at x/c =  0.3286   48
 Side 2 forced transition at x/c =  1.0001   76

   5   rms: 0.2564E+00   max: -.5339E+01   C at   76  2   RLX: 0.094
       a =  4.000      CL =  1.2105
      Cm = -0.1329     CD =  0.01678   =>   CDf =  0.00744    CDp =  0.00935

 Side 1  free  transition at x/c =  0.3287   48
 Side 2 forced transition at x/c =  1.0001   76

   6   rms: 0.1783E+00   max: -.4189E+01   C at   76  2   RLX: 0.119
       a =  4.000      CL =  1.2097
      Cm = -0.1320     CD =  0.01661   =>   CDf =  0.00744    CDp =  0.00917

 Side 1  free  transition at x/c =  0.3286   48
 Side 2 forced transition at x/c =  1.0001   76

   7   rms: 0.1461E+00   max: -.3516E+01   C at   76  2   RLX: 0.142
       a =  4.000      CL =  1.2135
      Cm = -0.1321     CD =  0.01650   =>   CDf =  0.00745    CDp =  0.00905

 Side 1  free  transition at x/c =  0.3282   48
 Side 2 forced transition at x/c =  1.0001   76

   8   rms: 0.1255E+00   max: -.2992E+01   C at   76  2   RLX: 0.167
       a =  4.000      CL =  1.2204
      Cm = -0.1328     CD =  0.01644   =>   CDf =  0.00747    CDp =  0.00897

 Side 1  free  transition at x/c =  0.3278   48
 Side 2 forced transition at x/c =  1.0001   76

   9   rms: 0.1075E+00   max: -.2521E+01   C at   76  2   RLX: 0.198
       a =  4.000      CL =  1.2294
      Cm = -0.1339     CD =  0.01641   =>   CDf =  0.00736    CDp =  0.00905

 Side 1  free  transition at x/c =  0.3273   49
 Side 2 forced transition at x/c =  1.0001   75

  10   rms: 0.1125E+00   max: -.2063E+01   C at   75  2   RLX: 0.242
       a =  4.000      CL =  1.2399
      Cm = -0.1354     CD =  0.01641   =>   CDf =  0.00751    CDp =  0.00890

 Side 1  free  transition at x/c =  0.3267   49
 Side 2 forced transition at x/c =  1.0001   75

  11   rms: 0.7003E-01   max: -.1600E+01   C at   75  2   RLX: 0.312
       a =  4.000      CL =  1.2513
      Cm = -0.1371     CD =  0.01643   =>   CDf =  0.00754    CDp =  0.00889

 Side 1  free  transition at x/c =  0.3261   49
 Side 2 forced transition at x/c =  1.0001   75

  12   rms: 0.4965E-01   max: -.1126E+01   C at   75  2   RLX: 0.444
       a =  4.000      CL =  1.2633
      Cm = -0.1389     CD =  0.01648   =>   CDf =  0.00757    CDp =  0.00891

 Side 1  free  transition at x/c =  0.3254   49
 Side 2 forced transition at x/c =  1.0001   75

  13   rms: 0.2844E-01   max: -.6403E+00   C at   75  2   RLX: 0.781
       a =  4.000      CL =  1.2758
      Cm = -0.1409     CD =  0.01657   =>   CDf =  0.00761    CDp =  0.00895

 Side 1  free  transition at x/c =  0.3246   49
 Side 2 forced transition at x/c =  1.0001   75

  14   rms: 0.6635E-02   max: -.1470E+00   C at   75  2
       a =  4.000      CL =  1.2796
      Cm = -0.1415     CD =  0.01661   =>   CDf =  0.00765    CDp =  0.00896

 Side 1  free  transition at x/c =  0.3243   49
 Side 2 forced transition at x/c =  1.0001   75

  15   rms: 0.5291E-04   max: 0.4167E-03   T at   49  1
       a =  4.000      CL =  1.2796
      Cm = -0.1415     CD =  0.01662   =>   CDf =  0.00767    CDp =  0.00895

 Point added to stored polar  1
 Point written to save file  000192M0.1.log                                  
 Dump file unspecified or not available
 Calculating wake trajectory ...
 Calculating source influence matrix ...

 Solving BL system ...

 Side 1  free  transition at x/c =  0.3243   49
 Side 2 forced transition at x/c =  1.0001   75

   1   rms: 0.1768E+00   max: -.3514E+00   C at   75  2
       a =  5.000      CL =  1.4040
      Cm = -0.1447     CD =  0.01938   =>   CDf =  0.00752    CDp =  0.01186

 MRCHDU: Convergence failed at  50  side 1    Res =  0.4483E+01
 MRCHDU: Convergence failed at  51  side 1    Res =  0.2623E+01
 MRCHDU: Convergence failed at  52  side 1    Res =  0.2503E+01
 MRCHDU: Convergence failed at  53  side 1    Res =  0.2752E+01
 MRCHDU: Convergence failed at  54  side 1    Res =  0.3315E+01
 MRCHDU: Convergence failed at  55  side 1    Res =  0.4031E+01
 MRCHDU: Convergence failed at  56  side 1    Res =  0.4588E+01
 MRCHDU: Convergence failed at  57  side 1    Res =  0.5162E+01
 MRCHDU: Convergence failed at  58  side 1    Res =  0.5587E+01
 MRCHDU: Convergence failed at  59  side 1    Res =  0.5477E+01
 MRCHDU: Convergence failed at  60  side 1    Res =  0.5278E+01
 MRCHDU: Convergence failed at  61  side 1    Res =  0.3159E+02
 MRCHDU: Convergence failed at  62  side 1    Res =  0.5562E+02
 MRCHDU: Convergence failed at  63  side 1    Res =  0.1220E+03
 MRCHDU: Convergence failed at  64  side 1    Res =  0.3816E+03
 MRCHDU: Convergence failed at  65  side 1    Res =  0.9432E+02
 MRCHDU: Convergence failed at  66  side 1    Res =  0.6206E+02
 MRCHDU: Convergence failed at  67  side 1    Res =  0.5042E+02
 MRCHDU: Convergence failed at  68  side 1    Res =  0.4328E+02
 MRCHDU: Convergence failed at  69  side 1    Res =  0.3862E+02
 MRCHDU: Convergence failed at  70  side 1    Res =  0.3526E+02
 MRCHDU: Convergence failed at  71  side 1    Res =  0.3457E+02
 MRCHDU: Convergence failed at  72  side 1    Res =  0.3230E+02
 MRCHDU: Convergence failed at  73  side 1    Res =  0.3036E+02
 MRCHDU: Convergence failed at  74  side 1    Res =  0.2924E+02
 MRCHDU: Convergence failed at  75  side 1    Res =  0.2693E+02
 MRCHDU: Convergence failed at  76  side 1    Res =  0.2442E+02
 MRCHDU: Convergence failed at  77  side 1    Res =  0.2818E+02
 MRCHDU: Convergence failed at  78  side 1    Res =  0.2457E+02
 MRCHDU: Convergence failed at  79  side 1    Res =  0.6831E+02
 MRCHDU: Convergence failed at  80  side 1    Res =  0.2821E+02
 MRCHDU: Convergence failed at  81  side 1    Res =  0.1711E+02
 MRCHDU: Convergence failed at  82  side 1    Res =  0.3238E+02
 MRCHDU: Convergence failed at  83  side 1    Res =  0.1536E+02
 MRCHDU: Convergence failed at  84  side 1    Res =  0.4707E+02
 MRCHDU: Convergence failed at  85  side 1    Res =  0.2219E+02
 MRCHDU: Convergence failed at  86  side 1    Res =  0.6427E+02
 MRCHDU: Convergence failed at  87  side 1    Res =  0.2985E+02
 MRCHDU: Convergence failed at  88  side 1    Res =  0.2209E+02
 Side 1  free  transition at x/c =  0.3092   49
 Side 2 forced transition at x/c =  1.0001   74

   2   rms: 0.9254E+00   max: -.5966E+01   C at   74  2   RLX: 0.084
       a =  5.000      CL =  2.0002
      Cm = -0.4295     CD =  0.00521   =>   CDf =  0.00414    CDp =  0.00107

 MRCHDU: Convergence failed at  68  side 1    Res =  0.9595E-02
 Side 1  free  transition at x/c =  0.3070   48
 Side 2 forced transition at x/c =  1.0001   74

   3   rms: 0.4051E+00   max: -.2177E+01   D at   52  1   RLX: 0.230
       a =  5.000      CL =  1.6673
      Cm = -0.2854     CD =  0.01965   =>   CDf =  0.00591    CDp =  0.01375

 MRCHDU: Convergence failed at  49  side 1    Res =  0.1654E+01
 MRCHDU: Convergence failed at  50  side 1    Res =  0.1197E+01
 MRCHDU: Convergence failed at  51  side 1    Res =  0.1912E+01
 MRCHDU: Convergence failed at  52  side 1    Res =  0.7635E+01
 MRCHDU: Convergence failed at  59  side 1    Res =  0.7133E-01
 MRCHDU: Convergence failed at  68  side 1    Res =  0.1159E+00
 MRCHDU: Convergence failed at  69  side 1    Res =  0.2737E+00
 MRCHDU: Convergence failed at  80  side 1    Res =  0.3870E-01
 Side 1  free  transition at x/c =  0.3234   49
 Side 2 forced transition at x/c =  1.0001   74

   4   rms: 0.3761E+00   max: -.1921E+01   D at   59  1   RLX: 0.260
       a =  5.000      CL =  1.5389
      Cm = -0.2038     CD =  0.01832   =>   CDf =  0.00547    CDp =  0.01285

 MRCHDU: Convergence failed at  80  side 1    Res =  0.9538E-01
 Side 1  free  transition at x/c =  0.3264   50
 Side 2 forced transition at x/c =  1.0001   74

   5   rms: 0.6439E+00   max: -.4007E+01   D at   80  1   RLX: 0.125
       a =  5.000      CL =  1.4945
      Cm = -0.1890     CD =  0.01574   =>   CDf =  0.00653    CDp =  0.00921

 MRCHDU: Convergence failed at  80  side 1    Res =  0.2053E+00
 MRCHDU: Convergence failed at  81  side 1    Res =  0.3888E+00
 MRCHDU: Convergence failed at  84  side 1    Res =  0.3666E+00
 Side 1  free  transition at x/c =  0.3280   50
 Side 2 forced transition at x/c =  1.0001   74

   6   rms: 0.2360E+01   max: -.1489E+02   D at   82  1   RLX: 0.034
       a =  5.000      CL =  1.4483
      Cm = -0.1611     CD =  0.01537   =>   CDf =  0.00663    CDp =  0.00874

 MRCHDU: Convergence failed at  82  side 1    Res =  0.1310E+00
 MRCHDU: Convergence failed at  83  side 1    Res =  0.1646E+00
 MRCHDU: Convergence failed at  84  side 1    Res =  0.1373E+00
 Side 1  free  transition at x/c =  0.3303   50
 Side 2 forced transition at x/c =  1.0001   74

   7   rms: 0.1964E+01   max: -.8641E+01   D at   74  1   RLX: 0.058
       a =  5.000      CL =  1.4616
[...]

 Point added to stored polar  1
 Point written to save file  000192M0.1.log                                  
 Dump file unspecified or not available
 Calculating wake trajectory ...
 Calculating source influence matrix ...

 Solving BL system ...

 Side 1  free  transition at x/c =  0.2836   49
 Side 2 forced transition at x/c =  1.0001   72

   1   rms: 0.1457E+00   max: -.2409E+00   C at   72  2
       a =  8.000      CL =  1.7158
      Cm = -0.1408     CD =  0.02168   =>   CDf =  0.00727    CDp =  0.01441

 Side 1  free  transition at x/c =  0.2720   50
 Side 2 forced transition at x/c =  1.0001   70

   2   rms: 0.2195E-01   max: -.1591E+00   D at    4  1
       a =  8.000      CL =  1.7132
      Cm = -0.1405     CD =  0.02204   =>   CDf =  0.00775    CDp =  0.01429

 Side 1  free  transition at x/c =  0.2715   50
 Side 2 forced transition at x/c =  1.0001   70

   3   rms: 0.1945E-02   max: -.2059E-01   D at    4  1
       a =  8.000      CL =  1.7139
      Cm = -0.1407     CD =  0.02208   =>   CDf =  0.00769    CDp =  0.01438

 Side 1  free  transition at x/c =  0.2713   50
 Side 2 forced transition at x/c =  1.0001   70

   4   rms: 0.1122E-04   max: -.5756E-04   C at   70  2
       a =  8.000      CL =  1.7139
      Cm = -0.1406     CD =  0.02208   =>   CDf =  0.00769    CDp =  0.01438

 Point added to stored polar  1
 Point written to save file  000192M0.1.log                                  
 Dump file unspecified or not available
 Calculating wake trajectory ...
 Calculating source influence matrix ...

 Solving BL system ...

 Side 1  free  transition at x/c =  0.2713   50
 Side 2 forced transition at x/c =  1.0001   70

   1   rms: 0.1411E+00   max: -.2108E+00   C at   70  2
       a =  9.000      CL =  1.8083
      Cm = -0.1381     CD =  0.02351   =>   CDf =  0.00741    CDp =  0.01610

 Side 1  free  transition at x/c =  0.2583   50
 Side 2 forced transition at x/c =  1.0001   69

   2   rms: 0.2460E-01   max: -.2473E+00   D at   51  1
       a =  9.000      CL =  1.8091
      Cm = -0.1385     CD =  0.02397   =>   CDf =  0.00771    CDp =  0.01626

 Side 1  free  transition at x/c =  0.2590   51
 Side 2 forced transition at x/c =  1.0001   69

   3   rms: 0.2035E-02   max: 0.2141E-01   D at   51  1
       a =  9.000      CL =  1.8092
      Cm = -0.1385     CD =  0.02386   =>   CDf =  0.00767    CDp =  0.01618

 Side 1  free  transition at x/c =  0.2589   51
 Side 2 forced transition at x/c =  1.0001   69

   4   rms: 0.4206E-04   max: 0.2707E-03   D at   51  1
       a =  9.000      CL =  1.8092
      Cm = -0.1385     CD =  0.02385   =>   CDf =  0.00766    CDp =  0.01619

 Point added to stored polar  1
 Point written to save file  000192M0.1.log                                  
 Dump file unspecified or not available
 Calculating wake trajectory ...
 Calculating source influence matrix ...

 Solving BL system ...

 Side 1  free  transition at x/c =  0.2589   51
 Side 2 forced transition at x/c =  1.0001   69

   1   rms: 0.1580E+00   max: 0.1981E+00   D at   86  2
       a = 10.000      CL =  1.9139
      Cm = -0.1389     CD =  0.02761   =>   CDf =  0.00708    CDp =  0.02053

 MRCHDU: Convergence failed at  53  side 1    Res =  0.5046E+01
 MRCHDU: Convergence failed at  54  side 1    Res =  0.2301E+01
 MRCHDU: Convergence failed at  55  side 1    Res =  0.2569E+01
 MRCHDU: Convergence failed at  56  side 1    Res =  0.3133E+01
 MRCHDU: Convergence failed at  57  side 1    Res =  0.4050E+01
 MRCHDU: Convergence failed at  58  side 1    Res =  0.5117E+01
 MRCHDU: Convergence failed at  59  side 1    Res =  0.5776E+01
 MRCHDU: Convergence failed at  60  side 1    Res =  0.6394E+01
 MRCHDU: Convergence failed at  61  side 1    Res =  0.6191E+01
 MRCHDU: Convergence failed at  62  side 1    Res =  0.4546E+02
 MRCHDU: Convergence failed at  63  side 1    Res =  0.1912E+03
 MRCHDU: Convergence failed at  64  side 1    Res =  0.7368E+02
 MRCHDU: Convergence failed at  65  side 1    Res =  0.3742E+02
 MRCHDU: Convergence failed at  66  side 1    Res =  0.2730E+02
 MRCHDU: Convergence failed at  67  side 1    Res =  0.2238E+02
 MRCHDU: Convergence failed at  68  side 1    Res =  0.2194E+02
 MRCHDU: Convergence failed at  69  side 1    Res =  0.2788E+02
 MRCHDU: Convergence failed at  70  side 1    Res =  0.3705E+02
 MRCHDU: Convergence failed at  71  side 1    Res =  0.3766E+02
 MRCHDU: Convergence failed at  72  side 1    Res =  0.2357E+02
 MRCHDU: Convergence failed at  73  side 1    Res =  0.2141E+02
 MRCHDU: Convergence failed at  74  side 1    Res =  0.2576E+02
 MRCHDU: Convergence failed at  75  side 1    Res =  0.2221E+02
 MRCHDU: Convergence failed at  76  side 1    Res =  0.2139E+02
 MRCHDU: Convergence failed at  77  side 1    Res =  0.2085E+02
 MRCHDU: Convergence failed at  78  side 1    Res =  0.2614E+02
 MRCHDU: Convergence failed at  79  side 1    Res =  0.2734E+02
 MRCHDU: Convergence failed at  80  side 1    Res =  0.2266E+02
 MRCHDU: Convergence failed at  81  side 1    Res =  0.1352E+03
 MRCHDU: Convergence failed at  82  side 1    Res =  0.1826E+02
 MRCHDU: Convergence failed at  83  side 1    Res =  0.1790E+02
 MRCHDU: Convergence failed at  84  side 1    Res =  0.5036E+02
 MRCHDU: Convergence failed at  85  side 1    Res =  0.4796E+02
 MRCHDU: Convergence failed at  86  side 1    Res =  0.8616E+02
 MRCHDU: Convergence failed at  87  side 1    Res =  0.1171E+03
 MRCHDU: Convergence failed at  88  side 1    Res =  0.5595E+02
 MRCHDU: Convergence failed at  89  side 1    Res =  0.5784E+02
 MRCHDU: Convergence failed at  90  side 1    Res =  0.2311E+02
 MRCHDU: Convergence failed at  91  side 1    Res =  0.2126E+02
 MRCHDU: Convergence failed at  92  side 1    Res =  0.2752E+02
 MRCHDU: Convergence failed at  93  side 1    Res =  0.6931E+02
 MRCHDU: Convergence failed at  94  side 1    Res =  0.1315E+04
 MRCHDU: Convergence failed at  95  side 1    Res =  0.7947E+02
 Side 1  free  transition at x/c =  0.2459   52
 Side 2 forced transition at x/c =  1.0001   67

   2   rms: 0.1394E+01   max: 0.7232E+01   D at   69  2   RLX: 0.111
       a = 10.000      CL =  2.9846
      Cm = -0.6324     CD =  0.00571   =>   CDf =  0.00382    CDp =  0.00189

 MRCHDU: Convergence failed at  75  side 1    Res =  0.9828E-01
 MRCHDU: Convergence failed at  76  side 1    Res =  0.6961E+01
 MRCHDU: Convergence failed at  77  side 1    Res =  0.7060E+01
 MRCHDU: Convergence failed at  78  side 1    Res =  0.7206E+01
 MRCHDU: Convergence failed at  79  side 1    Res =  0.7381E+01
 MRCHDU: Convergence failed at  80  side 1    Res =  0.7597E+01
 MRCHDU: Convergence failed at  81  side 1    Res =  0.1161E+02
 MRCHDU: Convergence failed at  82  side 1    Res =  0.1211E+02
 MRCHDU: Convergence failed at  83  side 1    Res =  0.1239E+02
 MRCHDU: Convergence failed at  84  side 1    Res =  0.1261E+02
 MRCHDU: Convergence failed at  85  side 1    Res =  0.1284E+02
 MRCHDU: Convergence failed at  86  side 1    Res =  0.1312E+02
 MRCHDU: Convergence failed at  87  side 1    Res =  0.1349E+02
 MRCHDU: Convergence failed at  88  side 1    Res =  0.1399E+02
 MRCHDU: Convergence failed at  89  side 1    Res =  0.1475E+02
 MRCHDU: Convergence failed at  90  side 1    Res =  0.1591E+02
 MRCHDU: Convergence failed at  91  side 1    Res =  0.1801E+02
 MRCHDU: Convergence failed at  92  side 1    Res =  0.2287E+02
 MRCHDU: Convergence failed at  93  side 1    Res =  0.3933E+02
 MRCHDU: Convergence failed at  70  side 2    Res =  0.1720E+02
 Side 1  free  transition at x/c =  0.2418   51
 Side 2 forced transition at x/c =  1.0001   67

   3   rms: 0.4885E+00   max: 0.2214E+01   C at   67  2   RLX: 0.434
       a = 10.000      CL =  2.4705
      Cm = -0.3775     CD =  0.01741   =>   CDf =  0.01032    CDp =  0.00709

 Side 1  free  transition at x/c =  0.2412   52
 Side 2 forced transition at x/c =  1.0001   66

   4   rms: 0.6096E+00   max: 0.8527E+01   D at    2  1   RLX: 0.129
       a = 10.000      CL =  2.4179
      Cm = -0.3491     CD =  0.01720   =>   CDf =  0.00901    CDp =  0.00819

 Side 1  free  transition at x/c =  0.2422   52
 Side 2 forced transition at x/c =  1.0001   66

   5   rms: 0.4435E+00   max: -.2526E+01   D at   59  1   RLX: 0.198
       a = 10.000      CL =  2.3754
      Cm = -0.3173     CD =  0.01656   =>   CDf =  0.00886    CDp =  0.00770

 Side 1  free  transition at x/c =  0.2473   53
 Side 2 forced transition at x/c =  1.0001   66

   6   rms: 0.4251E+00   max: 0.1911E+01   C at   66  2   RLX: 0.268
       a = 10.000      CL =  2.3316
      Cm = -0.2794     CD =  0.01429   =>   CDf =  0.00874    CDp =  0.00555

 MRCHDU: Convergence failed at  96  side 1    Res =  0.4531E+00
 Side 1  free  transition at x/c =  0.2462   53
 Side 2 forced transition at x/c =  1.0001   66

   7   rms: 0.3510E+00   max: -.1887E+01   C at   66  2   RLX: 0.265
       a = 10.000      CL =  2.2559
      Cm = -0.2484     CD =  0.00964   =>   CDf =  0.00876    CDp =  0.00087

 Side 1  free  transition at x/c =  0.2446   53
 Side 2 forced transition at x/c =  1.0001   66

   8   rms: 0.2993E+00   max: -.1557E+01   C at   66  2   RLX: 0.321
       a = 10.000      CL =  2.1753
      Cm = -0.2179     CD =  0.01253   =>   CDf =  0.00841    CDp =  0.00413

 Side 1  free  transition at x/c =  0.2432   53
 Side 2 forced transition at x/c =  1.0001   66

   9   rms: 0.2358E+00   max: -.1117E+01   C at   66  2   RLX: 0.447
       a = 10.000      CL =  2.0815
      Cm = -0.1861     CD =  0.01659   =>   CDf =  0.00852    CDp =  0.00807

 Side 1  free  transition at x/c =  0.2441   52
 Side 2 forced transition at x/c =  1.0001   67

  10   rms: 0.1667E+00   max: -.8352E+00   D at    2  2   RLX: 0.599
       a = 10.000      CL =  1.9893
      Cm = -0.1586     CD =  0.02106   =>   CDf =  0.00786    CDp =  0.01320

 Side 1  free  transition at x/c =  0.2462   52
 Side 2 forced transition at x/c =  1.0001   67

  11   rms: 0.8435E-01   max: -.2820E+00   C at   67  2
       a = 10.000      CL =  1.9028
      Cm = -0.1362     CD =  0.02532   =>   CDf =  0.00755    CDp =  0.01777

 Side 1  free  transition at x/c =  0.2461   52
 Side 2 forced transition at x/c =  1.0001   67

  12   rms: 0.1027E-01   max: -.8493E-01   D at   52  1
       a = 10.000      CL =  1.8927
      Cm = -0.1344     CD =  0.02573   =>   CDf =  0.00738    CDp =  0.01835

 Side 1  free  transition at x/c =  0.2472   52
 Side 2 forced transition at x/c =  1.0001   67

  13   rms: 0.8986E-03   max: -.7418E-02   D at   52  1
       a = 10.000      CL =  1.8929
      Cm = -0.1345     CD =  0.02573   =>   CDf =  0.00732    CDp =  0.01841

 Side 1  free  transition at x/c =  0.2472   52
 Side 2 forced transition at x/c =  1.0001   67

  14   rms: 0.2780E-04   max: -.1214E-03   D at   76  2
       a = 10.000      CL =  1.8929
      Cm = -0.1345     CD =  0.02573   =>   CDf =  0.00732    CDp =  0.01841

 Point added to stored polar  1
 Point written to save file  000192M0.1.log                                  
 Dump file unspecified or not available
 Calculating wake trajectory ...
 Calculating source influence matrix ...

 Solving BL system ...

 Side 1  free  transition at x/c =  0.2472   52
 Side 2 forced transition at x/c =  1.0001   67

   1   rms: 0.1360E+00   max: 0.1494E+00   D at   77  2
       a = 11.000      CL =  1.9751
      Cm = -0.1305     CD =  0.02783   =>   CDf =  0.00697    CDp =  0.02085

 Side 1  free  transition at x/c =  0.2269   51
 Side 2 forced transition at x/c =  1.0001   66

   2   rms: 0.1027E+00   max: -.7160E+00   D at   52  1   RLX: 0.698
       a = 11.000      CL =  1.9801
      Cm = -0.1316     CD =  0.02880   =>   CDf =  0.00708    CDp =  0.02172

 Side 1  free  transition at x/c =  0.2328   52
 Side 2 forced transition at x/c =  1.0001   66

   3   rms: 0.3172E-01   max: 0.1501E+00   D at   75  2
       a = 11.000      CL =  1.9594
      Cm = -0.1280     CD =  0.02754   =>   CDf =  0.00708    CDp =  0.02046

 Side 1  free  transition at x/c =  0.2311   52
 Side 2 forced transition at x/c =  1.0001   66

   4   rms: 0.6434E-02   max: 0.2860E-01   D at   70  2
       a = 11.000      CL =  1.9528
      Cm = -0.1267     CD =  0.02765   =>   CDf =  0.00714    CDp =  0.02051

 Side 1  free  transition at x/c =  0.2313   52
 Side 2 forced transition at x/c =  1.0001   66

   5   rms: 0.2008E-03   max: -.1414E-02   D at   70  2
       a = 11.000      CL =  1.9530
      Cm = -0.1268     CD =  0.02765   =>   CDf =  0.00713    CDp =  0.02052

 Side 1  free  transition at x/c =  0.2314   52
 Side 2 forced transition at x/c =  1.0001   66

   6   rms: 0.5119E-05   max: -.1703E-04   D at   68  2
       a = 11.000      CL =  1.9530
      Cm = -0.1268     CD =  0.02765   =>   CDf =  0.00713    CDp =  0.02052

 Point added to stored polar  1
 Point written to save file  000192M0.1.log                                  
 Dump file unspecified or not available
 Calculating wake trajectory ...
 Calculating source influence matrix ...

 Solving BL system ...

 Side 1  free  transition at x/c =  0.2313   52
 Side 2 forced transition at x/c =  1.0001   66

   1   rms: 0.1272E+00   max: 0.4191E+00   T at   52  1
       a = 12.000      CL =  2.0095
      Cm = -0.1190     CD =  0.03020   =>   CDf =  0.00674    CDp =  0.02346

 Side 1  free  transition at x/c =  0.2103   51
 Side 2 forced transition at x/c =  1.0001   65

   2   rms: 0.7571E-01   max: -.6633E+00   D at   52  1   RLX: 0.754
       a = 12.000      CL =  1.9965
      Cm = -0.1179     CD =  0.03118   =>   CDf =  0.00688    CDp =  0.02431

 Side 1  free  transition at x/c =  0.2155   52
 Side 2 forced transition at x/c =  1.0001   65

   3   rms: 0.1061E-01   max: -.1523E+00   D at   53  1
       a = 12.000      CL =  1.9946
      Cm = -0.1175     CD =  0.03053   =>   CDf =  0.00687    CDp =  0.02366

 Side 1  free  transition at x/c =  0.2139   52
 Side 2 forced transition at x/c =  1.0001   65

   4   rms: 0.1184E-02   max: -.1804E-01   D at   53  1
       a = 12.000      CL =  1.9945
      Cm = -0.1175     CD =  0.03061   =>   CDf =  0.00695    CDp =  0.02367

 Side 1  free  transition at x/c =  0.2137   52
 Side 2 forced transition at x/c =  1.0001   65

   5   rms: 0.2238E-04   max: -.3625E-03   D at   53  1
       a = 12.000      CL =  1.9944
      Cm = -0.1175     CD =  0.03062   =>   CDf =  0.00696    CDp =  0.02366

 Point added to stored polar  1
 Point written to save file  000192M0.1.log                                  
 Dump file unspecified or not available
 Calculating wake trajectory ...
 Calculating source influence matrix ...

 Solving BL system ...

 Side 1  free  transition at x/c =  0.2137   52
 Side 2 forced transition at x/c =  1.0001   65

   1   rms: 0.1365E+00   max: -.6442E+00   D at   52  1   RLX: 0.776
       a = 13.000      CL =  2.0155
      Cm = -0.1099     CD =  0.03445   =>   CDf =  0.00654    CDp =  0.02791

 Side 1  free  transition at x/c =  0.1999   52
 Side 2 forced transition at x/c =  1.0001   64

   2   rms: 0.5428E-01   max: -.5258E+00   D at   52  1   RLX: 0.951
       a = 13.000      CL =  2.0184
      Cm = -0.1086     CD =  0.03491   =>   CDf =  0.00666    CDp =  0.02826

 Side 1  free  transition at x/c =  0.1984   52
 Side 2 forced transition at x/c =  1.0001   64

   3   rms: 0.1444E-01   max: -.2000E+00   D at   53  1
       a = 13.000      CL =  2.0171
      Cm = -0.1087     CD =  0.03582   =>   CDf =  0.00657    CDp =  0.02924

 Side 1  free  transition at x/c =  0.1958   51
 Side 2 forced transition at x/c =  1.0001   64

   4   rms: 0.8403E-02   max: -.6638E-01   C at   51  1
       a = 13.000      CL =  2.0225
      Cm = -0.1092     CD =  0.03547   =>   CDf =  0.00662    CDp =  0.02885

 Side 1  free  transition at x/c =  0.1949   51
 Side 2 forced transition at x/c =  1.0001   64

   5   rms: 0.6899E-03   max: -.3236E-02   D at   91  1
       a = 13.000      CL =  2.0230
      Cm = -0.1092     CD =  0.03546   =>   CDf =  0.00659    CDp =  0.02887

 Side 1  free  transition at x/c =  0.1948   51
 Side 2 forced transition at x/cGot result {'DD': 0.0161, 'Dmin': 0.01588, 'LL': -1.081}
Completed successfully in 1.94 seconds. [{'DD': 0.0161, 'Dmin': 0.01588, 'LL': -1.081}]
 =  1.0001   64

   6   rms: 0.1321E-04   max: -.9010E-04   D at   75  2
       a = 13.000      CL =  2.0230
      Cm = -0.1092     CD =  0.03547   =>   CDf =  0.00659    CDp =  0.02887

 Point added to stored polar  1
 Point written to save file  000192M0.1.log                                  
 Dump file unspecified or not available
 Calculating wake trajectory ...
 Calculating source influence matrix ...

 Solving BL system ...

 Side 1  free  transition at x/c =  0.1948   51
 Side 2 forced transition at x/c =  1.0001   64

   1   rms: 0.1294E+00   max: 0.3617E+00   T at   51  1   RLX: 0.775
       a = 14.000      CL =  2.0502
      Cm = -0.1049     CD =  0.03992   =>   CDf =  0.00615    CDp =  0.03378

 Side 1  free  transition at x/c =  0.1740   51
 Side 2 forced transition at x/c =  1.0001   63

   2   rms: 0.5068E-01   max: -.3726E+00   D at   51  1
       a = 14.000      CL =  2.0243
      Cm = -0.1035     CD =  0.04463   =>   CDf =  0.00649    CDp =  0.03814

 Side 1  free  transition at x/c =  0.1757   51
 Side 2 forced transition at x/c =  1.0001   63

   3   rms: 0.9641E-02   max: 0.7863E-01   C at   51  1
       a = 14.000      CL =  2.0224
      Cm = -0.1039     CD =  0.04501   =>   CDf =  0.00621    CDp =  0.03880

 Side 1  free  transition at x/c =  0.1743   51
 Side 2 forced transition at x/c =  1.0001   63

   4   rms: 0.7563E-03   max: 0.5975E-02   D at   75  2
       a = 14.000      CL =  2.0218
      Cm = -0.1039     CD =  0.04499   =>   CDf =  0.00623    CDp =  0.03875

 Side 1  free  transition at x/c =  0.1743   51
 Side 2 forced transition at x/c =  1.0001   63

   5   rms: 0.1977E-04   max: 0.1469E-03   D at   75  2
       a = 14.000      CL =  2.0218
      Cm = -0.1039     CD =  0.04498   =>   CDf =  0.00623    CDp =  0.03875

 Point added to stored polar  1
 Point written to save file  000192M0.1.log                                  
 Dump file unspecified or not available
 Calculating wake trajectory ...
 Calculating source influence matrix ...

 Solving BL system ...

 Side 1  free  transition at x/c =  0.1743   51
 Side 2 forced transition at x/c =  1.0001   63

   1   rms: 0.1690E+00   max: 0.6827E+00   D at   83  1   RLX: 0.612
       a = 15.000      CL =  2.0093
      Cm = -0.1039     CD =  0.05459   =>   CDf =  0.00625    CDp =  0.04834

 Side 1  free  transition at x/c =  0.1593   50
 Side 2 forced transition at x/c =  1.0001   63

   2   rms: 0.9879E-01   max: 0.5684E+00   D at   80  1
       a = 15.000      CL =  1.9864
      Cm = -0.1084     CD =  0.06525   =>   CDf =  0.00611    CDp =  0.05914

 Side 1  free  transition at x/c =  0.1542   49
 Side 2 forced transition at x/c =  1.0001   63

   3   rms: 0.3257E-01   max: 0.2283E+00   D at   74  1
       a = 15.000      CL =  1.9708
      Cm = -0.1084     CD =  0.06627   =>   CDf =  0.00586    CDp =  0.06041

 Side 1  free  transition at x/c =  0.1560   49
 Side 2 forced transition at x/c =  1.0001   63

   4   rms: 0.5083E-02   max: 0.3833E-01   D at   72  1
       a = 15.000      CL =  1.9673
      Cm = -0.1081     CD =  0.06605   =>   CDf =  0.00579    CDp =  0.06027

 Side 1  free  transition at x/c =  0.1565   49
 Side 2 forced transition at x/c =  1.0001   63

   5   rms: 0.4334E-03   max: 0.2390E-02   D at   71  1
       a = 15.000      CL =  1.9669
      Cm = -0.1081     CD =  0.06603   =>   CDf =  0.00578    CDp =  0.06025

 Side 1  free  transition at x/c =  0.1566   49
 Side 2 forced transition at x/c =  1.0001   63

   6   rms: 0.4992E-04   max: 0.1966E-03   D at   77  2
       a = 15.000      CL =  1.9669
      Cm = -0.1080     CD =  0.06603   =>   CDf =  0.00578    CDp =  0.06025

 Point added to stored polar  1
 Point written to save file  000192M0.1.log                                  
 Dump file unspecified or not available

.OPERva   c>  
 XFOIL   c>  
