Job launching after 0.26 seconds in submission.
Running python job.
Changed into dir /home/simonx/Documents/Udacity/Projects/capstone/PESM_NSGA2_CST_XFoil
Importing evaluationFunctionXFoil.py
Running evaluationFunctionXFoil.main()
0
1
2
0.04
resp: 
 ===================================================
  XFOIL Version 6.97
  Copyright (C) 2000   Mark Drela, Harold Youngren

  This software comes with ABSOLUTELY NO WARRANTY,
    subject to the GNU General Public License.

  Caveat computor
 ===================================================

 File  xfoil.def  not found

   QUIT    Exit program

  .OPER    Direct operating point(s)
  .MDES    Complex mapping design routine
  .QDES    Surface speed design routine
  .GDES    Geometry design routine

   SAVE f  Write airfoil to labeled coordinate file
   PSAV f  Write airfoil to plain coordinate file
   ISAV f  Write airfoil to ISES coordinate file
   MSAV f  Write airfoil to MSES coordinate file
   REVE    Reverse written-airfoil node ordering
   DELI i  Change written-airfoil file delimiters

   LOAD f  Read buffer airfoil from coordinate file
   NACA i  Set NACA 4,5-digit airfoil and buffer airfoil
   INTE    Set buffer airfoil by interpolating two airfoils
   NORM    Buffer airfoil normalization toggle
   HALF    Halve the number of points in buffer airfoil
   XYCM rr Change CM reference location, currently  0.25000 0.00000

   BEND    Display structural properties of current airfoil

   PCOP    Set current-airfoil panel nodes directly from buffer airfoil points
   PANE    Set current-airfoil panel nodes ( 160 ) based on curvature
  .PPAR    Show/change paneling

  .PLOP    Plotting options

   WDEF f  Write  current-settings file
   RDEF f  Reread current-settings file
   NAME s  Specify new airfoil name
   NINC    Increment name version number

   Z       Zoom    | (available in all menus)
   U       Unzoom  | 

 XFOIL   c>   ...............................................

  G raphics-enable flag:        T
  S ize of plot object          10.00"
  A spect ratio of plot object   0.5500
  P age dimensions              11.00 x  8.50"
  M argins from page edges       0.00",  0.00"
  F ont size (relative)          0.0150
  W indow/screen size fraction   0.8000
  B lowup input method:        Cursor    
  O rientation of plot:        Landscape 
  C olor PostScript output?     F

      Option, Value   (or <Return>)    c>   ...............................................

  G raphics-enable flag:        F
  S ize of plot object          10.00"
  A spect ratio of plot object   0.5500
  P age dimensions              11.00 x  8.50"
  M argins from page edges       0.00",  0.00"
  F ont size (relative)          0.0150
  W indow/screen size fraction   0.8000
  B lowup input method:        Cursor    
  O rientation of plot:        Landscape 
  C olor PostScript output?     F

      Option, Value   (or <Return>)    c>  
 XFOIL   c>  
 Labeled airfoil file.  Name:  000123                                          

 Number of input coordinate points: 200
 Clockwise ordering
 Max thickness =     0.177180  at x =   0.182
 Max camber    =     0.122800  at x =   0.468

  LE  x,y  =  -0.00003   0.00181  |   Chord =   0.99991
  TE  x,y  =   0.99988   0.00006  |

 Current airfoil nodes set from buffer airfoil nodes ( 200 )

 XFOIL   c>  
 You are working with the buffer airfoil

.GDES   c>  
  i       x        y      angle
   2   0.9990   0.0004    0.029
   3   0.9978   0.0010   -0.016
   4   0.9961   0.0018    0.005
   5   0.9938   0.0028    0.023
   6   0.9911   0.0040    0.039
   7   0.9880   0.0054    0.007
   8   0.9843   0.0070    0.034
   9   0.9801   0.0089    0.046
  10   0.9755   0.0109    0.035
  11   0.9704   0.0132    0.053
  12   0.9649   0.0157    0.051
  13   0.9589   0.0183    0.066
  14   0.9524   0.0212    0.073
  15   0.9455   0.0242    0.077
  16   0.9382   0.0274    0.087
  17   0.9304   0.0308    0.101
  18   0.9222   0.0344    0.106
  19   0.9135   0.0381    0.129
  20   0.9045   0.0420    0.127
  21   0.8951   0.0460    0.147
  22   0.8853   0.0501    0.157
  23   0.8751   0.0544    0.179
  24   0.8645   0.0588    0.186
  25   0.8536   0.0633    0.207
  26   0.8423   0.0679    0.218
  27   0.8307   0.0726    0.238
  28   0.8187   0.0774    0.256
  29   0.8065   0.0822    0.271
  30   0.7939   0.0871    0.298
  31   0.7810   0.0920    0.310
  32   0.7679   0.0970    0.330
  33   0.7545   0.1019    0.356
  34   0.7409   0.1069    0.374
  35   0.7270   0.1118    0.395
  36   0.7129   0.1167    0.420
  37   0.6986   0.1216    0.446
  38   0.6841   0.1264    0.461
  39   0.6694   0.1311    0.491
  40   0.6545   0.1357    0.513
  41   0.6395   0.1403    0.542
  42   0.6243   0.1447    0.560
  43   0.6091   0.1490    0.590
  44   0.5937   0.1532    0.620
  45   0.5782   0.1572    0.640
  46   0.5627   0.1610    0.671
  47   0.5471   0.1647    0.698
  48   0.5314   0.1682    0.722
  49   0.5157   0.1714    0.754
  50   0.5000   0.1745    0.782
  51   0.4843   0.1774    0.813
  52   0.4686   0.1800    0.838
  53   0.4529   0.1823    0.874
  54   0.4373   0.1845    0.901
  55   0.4218   0.1863    0.936
  56   0.4063   0.1879    0.965
  57   0.3909   0.1892    0.994
  58   0.3757   0.1903    1.035
  59   0.3605   0.1911    1.067
  60   0.3455   0.1915    1.103
  61   0.3306   0.1917    1.138
  62   0.3159   0.1916    1.177
  63   0.3014   0.1912    1.209
  64   0.2871   0.1905    1.260
  65   0.2730   0.1895    1.295
  66   0.2591   0.1882    1.334
  67   0.2455   0.1866    1.387
  68   0.2321   0.1847    1.429
  69   0.2190   0.1825    1.479
  70   0.2061   0.1800    1.527
  71   0.1935   0.1773    1.577
  72   0.1813   0.1742    1.638
  73   0.1693   0.1708    1.689
  74   0.1577   0.1672    1.751
  75   0.1464   0.1633    1.817
  76   0.1355   0.1591    1.873
  77   0.1249   0.1546    1.947
  78   0.1147   0.1499    2.021
  79   0.1049   0.1449    2.088
  80   0.0955   0.1397    2.168
  81   0.0865   0.1343    2.244
  82   0.0778   0.1286    2.333
  83   0.0696   0.1227    2.416
  84   0.0618   0.1167    2.501
  85   0.0545   0.1104    2.591
  86   0.0476   0.1039    2.691
  87   0.0411   0.0972    2.769
  88   0.0351   0.0904    2.877
  89   0.0296   0.0834    2.957
  90   0.0245   0.0763    3.052
  91   0.0199   0.0691    3.144
  92   0.0157   0.0617    3.232
  93   0.0120   0.0542    3.294
  94   0.0089   0.0466    3.385
  95   0.0062   0.0390    3.441
  96   0.0039   0.0313    3.491
  97   0.0022   0.0235    3.547
  98   0.0010   0.0157    3.570
  99   0.0002   0.0079    3.592
 100   0.0000   0.0000    7.485
 101   0.0002  -0.0025   11.072
 102   0.0010  -0.0049   10.341
 103   0.0022  -0.0073    9.332
 104   0.0039  -0.0097    8.238
 105   0.0062  -0.0119    7.196
 106   0.0089  -0.0140    6.292
 107   0.0120  -0.0160    5.482
 108   0.0157  -0.0178    4.826
 109   0.0199  -0.0195    4.269
 110   0.0245  -0.0209    3.786
 111   0.0296  -0.0221    3.383
 112   0.0351  -0.0231    3.035
 113   0.0411  -0.0239    2.738
 114   0.0476  -0.0244    2.462
 115   0.0545  -0.0246    2.247
 116   0.0618  -0.0245    2.017
 117   0.0696  -0.0242    1.824
 118   0.0778  -0.0236    1.662
 119   0.0865  -0.0227    1.489
 120   0.0955  -0.0215    1.349
 121   0.1049  -0.0201    1.204
 122   0.1147  -0.0184    1.073
 123   0.1249  -0.0164    0.952
 124   0.1355  -0.0142    0.840
 125   0.1464  -0.0117    0.727
 126   0.1577  -0.0090    0.616
 127   0.1693  -0.0060    0.526
 128   0.1813  -0.0029    0.423
 129   0.1935   0.0004    0.337
 130   0.2061   0.0039    0.244
 131   0.2190   0.0075    0.158
 132   0.2321   0.0112    0.085
 133   0.2455   0.0150   -0.007
 134   0.2591   0.0189   -0.076
 135   0.2730   0.0228   -0.151
 136   0.2871   0.0268   -0.224
 137   0.3014   0.0307   -0.294
 138   0.3159   0.0347   -0.357
 139   0.3306   0.0386   -0.428
 140   0.3455   0.0424   -0.483
 141   0.3605   0.0461   -0.544
 142   0.3757   0.0497   -0.601
 143   0.3909   0.0531   -0.652
 144   0.4063   0.0564   -0.706
 145   0.4218   0.0595   -0.750
 146   0.4373   0.0625   -0.792
 147   0.4529   0.0652   -0.837
 148   0.4686   0.0676   -0.867
 149   0.4843   0.0699   -0.900
 150   0.5000   0.0719   -0.928
 151   0.5157   0.0736   -0.952
 152   0.5314   0.0751   -0.970
 153   0.5471   0.0763   -0.988
 154   0.5627   0.0772   -0.993
 155   0.5782   0.0779   -1.002
 156   0.5937   0.0783   -1.004
 157   0.6091   0.0784   -0.999
 158   0.6243   0.0782   -0.991
 159   0.6395   0.0778   -0.983
 160   0.6545   0.0771   -0.968
 161   0.6694   0.0762   -0.948
 162   0.6841   0.0750   -0.926
 163   0.6986   0.0737   -0.909
 164   0.7129   0.0721   -0.875
 165   0.7270   0.0703   -0.848
 166   0.7409   0.0683   -0.820
 167   0.7545   0.0662   -0.785
 168   0.7679   0.0639   -0.748
 169   0.7810   0.0615   -0.723
 170   0.7939   0.0590   -0.679
 171   0.8065   0.0564   -0.645
 172   0.8187   0.0537   -0.613
 173   0.8307   0.0509   -0.577
 174   0.8423   0.0481   -0.537
 175   0.8536   0.0452   -0.501
 176   0.8645   0.0424   -0.471
 177   0.8751   0.0395   -0.436
 178   0.8853   0.0367   -0.405
 179   0.8951   0.0338   -0.375
 180   0.9045   0.0311   -0.343
 181   0.9135   0.0284   -0.307
 182   0.9222   0.0257   -0.290
 183   0.9304   0.0232   -0.257
 184   0.9382   0.0207   -0.238
 185   0.9455   0.0184   -0.209
 186   0.9524   0.0161   -0.189
 187   0.9589   0.0140   -0.168
 188   0.9649   0.0120   -0.152
 189   0.9704   0.0101   -0.135
 190   0.9755   0.0084   -0.103
 191   0.9801   0.0068   -0.110
 192   0.9843   0.0054   -0.092
 193   0.9880   0.0042   -0.062
 194   0.9911   0.0031   -0.066
 195   0.9938   0.0021   -0.057
 196   0.9961   0.0014   -0.021
 197   0.9978   0.0008   -0.039
 198   0.9990   0.0003   -0.023
 199   0.9998   0.0001    0.024

 Maximum panel corner angle = 11.072   at  i,x,y  = 101   0.0002  -0.0025

 Enter corner angle criterion for refinement (deg):   5.536
 Enter type of spline parameter (1=uniform, 2=arclength):   1
 Enter refinement x limits:  -0.10000   1.10000
 Number of points added:           14
 Max thickness =     0.177086  at x =   0.181
 Max camber    =     0.123875  at x =   0.469

 Maximum panel corner angle =  7.881   at  i,x,y  = 103   0.0001  -0.0020

.GDES   c>  
 Buffer airfoil is not identical to current airfoil

 XFOIL   c>  
 Blunt trailing edge.  Gap =  0.00027

 Paneling parameters used...
   Number of panel nodes       160
   Panel bunching parameter    1.000
   TE/LE panel density ratio   0.150
   Refined-area/LE panel density ratio    0.200
   Top    side refined area x/c limits  1.000 1.000
   Bottom side refined area x/c limits  1.000 1.000

 XFOIL   c>  
Enter output filename   s>  
 XFOIL   c>  
.OPERi   c>   Current iteration limit:          20

Enter new iteration limit   i>  
Enter new iteration limit   i>  
Enter new iteration limit   i>  
.OPERi   c>  
 M  =    0.0000
 Re =  0.3000E+06

.OPERv   c>  
 Sonic Cp =   -420.65      Sonic Q/Qinf =    22.825


.OPERv   c>  
 Polar  1 newly created for accumulation
 Airfoil archived with polar: 000123                                          

Enter  polar save filename  OR  <return> for no file   s>  
 New polar save file available

Enter  polar dump filename  OR  <return> for no file   s>  
 Polar dump file will NOT be written

 Polar accumulation enabled

.OPERva   c>   Calculating unit vorticity distributions ...
 Calculating wake trajectory ...
 Calculating source influence matrix ...

 Solving BL system ...

 Initializing BL ...
    side            1  ...
 MRCHUE: Inverse mode at  53     Hk =   4.257
 MRCHUE: Inverse mode at  54     Hk =   5.148
 MRCHUE: Inverse mode at  55     Hk =   6.025
 MRCHUE: Inverse mode at  56     Hk =   6.893
 MRCHUE: Inverse mode at  57     Hk =   7.758
 MRCHUE: Inverse mode at  58     Hk =   8.621
 MRCHUE: Inverse mode at  59     Hk =   7.021
 MRCHUE: Inverse mode at  60     Hk =   3.861
 MRCHUE: Inverse mode at  61     Hk =   2.500
 MRCHUE: Inverse mode at  85     Hk =   2.500
 MRCHUE: Inverse mode at  86     Hk =   2.500
    side            2  ...
 MRCHUE: Inverse mode at  30     Hk =   3.971
 MRCHUE: Inverse mode at  31     Hk =   4.709
 MRCHUE: Inverse mode at  32     Hk =   5.472
 MRCHUE: Inverse mode at  33     Hk =   6.266
 MRCHUE: Inverse mode at  34     Hk =   7.096
 MRCHUE: Inverse mode at  35     Hk =   7.963
 MRCHUE: Inverse mode at  36     Hk =   8.863
 MRCHUE: Inverse mode at  37     Hk =   9.783
 MRCHUE: Inverse mode at  38     Hk =   5.373
 MRCHUE: Inverse mode at  39     Hk =   3.435

 Side 1  free  transition at x/c =  0.4543   59
 Side 2  free  transition at x/c =  0.2550   38

   1   rms: 0.1994E+00   max: -.8609E+00   D at   39  2   RLX: 0.581
       a =  2.000      CL =  1.6935
      Cm = -0.2889     CD =  0.01838   =>   CDf =  0.00833    CDp =  0.01005

 MRCHDU: Convergence failed at  38  side 2    Res =  0.3179E+01
 MRCHDU: Convergence failed at  39  side 2    Res =  0.1026E+02
 MRCHDU: Convergence failed at  40  side 2    Res =  0.2867E+02
 MRCHDU: Convergence failed at  41  side 2    Res =  0.3528E+02
 MRCHDU: Convergence failed at  42  side 2    Res =  0.1158E+03
 MRCHDU: Convergence failed at  43  side 2    Res =  0.8614E+02
 MRCHDU: Convergence failed at  44  side 2    Res =  0.3025E+02
 MRCHDU: Convergence failed at  45  side 2    Res =  0.4758E+02
 MRCHDU: Convergence failed at  46  side 2    Res =  0.3450E+02
 MRCHDU: Convergence failed at  47  side 2    Res =  0.2919E+02
 MRCHDU: Convergence failed at  48  side 2    Res =  0.3499E+02
 MRCHDU: Convergence failed at  49  side 2    Res =  0.3313E+02
 MRCHDU: Convergence failed at  50  side 2    Res =  0.3240E+02
 MRCHDU: Convergence failed at  51  side 2    Res =  0.1060E+03
 MRCHDU: Convergence failed at  52  side 2    Res =  0.1569E+03
 MRCHDU: Convergence failed at  53  side 2    Res =  0.1487E+04
 MRCHDU: Convergence failed at  54  side 2    Res =  0.8435E+02
 MRCHDU: Convergence failed at  55  side 2    Res =  0.3845E+02
 MRCHDU: Convergence failed at  56  side 2    Res =  0.4835E+02
 MRCHDU: Convergence failed at  57  side 2    Res =  0.3286E+02
 MRCHDU: Convergence failed at  58  side 2    Res =  0.6906E+02
 MRCHDU: Convergence failed at  59  side 2    Res =  0.4934E+02
 MRCHDU: Convergence failed at  60  side 2    Res =  0.8440E+02
 MRCHDU: Convergence failed at  61  side 2    Res =  0.3283E+03
 MRCHDU: Convergence failed at  62  side 2    Res =  0.4777E+02
 MRCHDU: Convergence failed at  63  side 2    Res =  0.5843E+02
 MRCHDU: Convergence failed at  64  side 2    Res =  0.6672E+02
 MRCHDU: Convergence failed at  65  side 2    Res =  0.1057E+03
 MRCHDU: Convergence failed at  66  side 2    Res =  0.2667E+03
 MRCHDU: Convergence failed at  67  side 2    Res =  0.3214E+03
 MRCHDU: Convergence failed at  68  side 2    Res =  0.1474E+03
 MRCHDU: Convergence failed at  69  side 2    Res =  0.8592E+01
 MRCHDU: Convergence failed at  70  side 2    Res =  0.8401E+01
 MRCHDU: Convergence failed at  71  side 2    Res =  0.6619E+01
 MRCHDU: Convergence failed at  72  side 2    Res =  0.4467E+01
 MRCHDU: Convergence failed at  73  side 2    Res =  0.8165E+01
 MRCHDU: Convergence failed at  74  side 2    Res =  0.1258E+02
 Side 1  free  transition at x/c =  0.4735   60
 Side 2  free  transition at x/c =  0.2494   37

   2   rms: 0.6614E+00   max: 0.4712E+01   T at   37  2   RLX: 0.227
       a =  2.000      CL =  1.4740
      Cm = -0.2176     CD =  0.01621   =>   CDf =  0.00642    CDp =  0.00979

 Side 1  free  transition at x/c =  0.4776   60
 Side 2  free  transition at x/c =  0.2273   36

   3   rms: 0.2863E+00   max: -.1632E+01   D at   72  2   RLX: 0.306
       a =  2.000      CL =  1.6166
      Cm = -0.2657     CD =  0.02348   =>   CDf =  0.00660    CDp =  0.01688

 Side 1  free  transition at x/c =  0.4806   60
 Side 2  free  transition at x/c =  0.2320   36

   4   rms: 0.3162E+00   max: -.1870E+01   T at   36  2   RLX: 0.267
       a =  2.000      CL =  1.6620
      Cm = -0.2795     CD =  0.02263   =>   CDf =  0.00672    CDp =  0.01591

 MRCHDU: Convergence failed at  53  side 2    Res =  0.5996E-01
 MRCHDU: Convergence failed at  72  side 2    Res =  0.1430E+00
 MRCHDU: Convergence failed at  73  side 2    Res =  0.3667E+00
 Side 1  free  transition at x/c =  0.4816   60
 Side 2  free  transition at x/c =  0.2448   37

   5   rms: 0.3491E+00   max: -.2334E+01   D at   74  2   RLX: 0.214
       a =  2.000      CL =  1.7228
      Cm = -0.3001     CD =  0.02119   =>   CDf =  0.00683    CDp =  0.01436

 MRCHDU: Convergence failed at  53  side 2    Res =  0.1074E+00
 MRCHDU: Convergence failed at  54  side 2    Res =  0.5005E+00
 MRCHDU: Convergence failed at  55  side 2    Res =  0.1573E-01
 MRCHDU: Convergence failed at  57  side 2    Res =  0.1674E+02
 MRCHDU: Convergence failed at  58  side 2    Res =  0.7151E+02
 MRCHDU: Convergence failed at  59  side 2    Res =  0.7791E+02
 MRCHDU: Convergence failed at  60  side 2    Res =  0.4010E+02
 MRCHDU: Convergence failed at  61  side 2    Res =  0.3535E+02
 MRCHDU: Convergence failed at  62  side 2    Res =  0.1463E+02
 MRCHDU: Convergence failed at  63  side 2    Res =  0.9373E+01
 MRCHDU: Convergence failed at  64  side 2    Res =  0.4204E+01
 MRCHDU: Convergence failed at  65  side 2    Res =  0.2386E+01
 MRCHDU: Convergence failed at  66  side 2    Res =  0.8436E+00
 MRCHDU: Convergence failed at  67  side 2    Res =  0.7234E+00
 Side 1  free  transition at x/c =  0.4821   61
 Side 2  free  transition at x/c =  0.2505   37

   6   rms: 0.5613E+00   max: -.3508E+01   D at   55  2   RLX: 0.143
       a =  2.000      CL =  1.7219
      Cm = -0.2987     CD =  0.01966   =>   CDf =  0.00765    CDp =  0.01201

 MRCHDU: Convergence failed at  55  side 2    Res =  0.2197E+00
 MRCHDU: Convergence failed at  56  side 2    Res =  0.1883E+00
 MRCHDU: Convergence failed at  57  side 2    Res =  0.1671E+00
 MRCHDU: Convergence failed at  58  side 2    Res =  0.1577E+00
 MRCHDU: Convergence failed at  59  side 2    Res =  0.1533E+00
 MRCHDU: Convergence failed at  60  side 2    Res =  0.1517E+00
 MRCHDU: Convergence failed at  61  side 2    Res =  0.1522E+00
 MRCHDU: Convergence failed at  62  side 2    Res =  0.1542E+00
 MRCHDU: Convergence failed at  63  side 2    Res =  0.1574E+00
 MRCHDU: Convergence failed at  64  side 2    Res =  0.1618E+00
 MRCHDU: Convergence failed at  65  side 2    Res =  0.1677E+00
 MRCHDU: Convergence failed at  66  side 2    Res =  0.1759E+00
 MRCHDU: Convergence failed at  67  side 2    Res =  0.1884E+00
 Side 1  free  transition at x/c =  0.4834   61
 Side 2  free  transition at x/c =  0.2559   38

   7   rms: 0.5840E+00   max: -.3492E+01   D at   68  2   RLX: 0.143
       a =  2.000      CL =  1.7774
      Cm = -0.3202     CD =  0.01963   =>   CDf =  0.00686    CDp =  0.01277

 Side 1  free  transition at x/c =  0.4837   61
 Side 2  free  transition at x/c =  0.2597   38

   8   rms: 0.5818E+00   max: -.2651E+01   D at   60  2   RLX: 0.189
       a =  2.000      CL =  1.7714
      Cm = -0.3179     CD =  0.01932   =>   CDf =  0.00707    CDp =  0.01225

 Side 1  free  transition at x/c =  0.4847   61
 Side 2  free  transition at x/c =  0.2629   38

   9   rms: 0.3926E+00   max: -.1804E+01   D at   58  2   RLX: 0.277
       a =  2.000      CL =  1.7431
      Cm = -0.3093     CD =  0.01908   =>   CDf =  0.00722    CDp =  0.01185

 Side 1  free  transition at x/c =  0.4864   61
 Side 2  free  transition at x/c =  0.2583   38

  10   rms: 0.2784E+00   max: -.1339E+01   D at   55  2   RLX: 0.374
       a =  2.000      CL =  1.7075
      Cm = -0.2989     CD =  0.01889   =>   CDf =  0.00737    CDp =  0.01152

 Side 1  free  transition at x/c =  0.4883   61
 Side 2  free  transition at x/c =  0.2531   37

  11   rms: 0.1209E+00   max: 0.9688E+00   T at   37  2   RLX: 0.685
       a =  2.000      CL =  1.6515
      Cm = -0.2832     CD =  0.01889   =>   CDf =  0.00752    CDp =  0.01137

 Side 1  free  transition at x/c =  0.4909   61
 Side 2  free  transition at x/c =  0.2355   37

  12   rms: 0.8305E-01   max: -.5859E+00   D at   38  2   RLX: 0.853
       a =  2.000      CL =  1.6303
      Cm = -0.2770     CD =  0.01897   =>   CDf =  0.00779    CDp =  0.01118

 Side 1  free  transition at x/c =  0.4921   60
 Side 2  free  transition at x/c =  0.2346   38

  13   rms: 0.1711E-01   max: -.1774E+00   D at   39  2
       a =  2.000      CL =  1.6236
      Cm = -0.2752     CD =  0.01907   =>   CDf =  0.00771    CDp =  0.01137

 Side 1  free  transition at x/c =  0.4924   60
 Side 2  free  transition at x/c =  0.2318   37

  14   rms: 0.8169E-02   max: -.1095E+00   D at   37  2
       a =  2.000      CL =  1.6242
      Cm = -0.2753     CD =  0.01899   =>   CDf =  0.00770    CDp =  0.01129

 Side 1  free  transition at x/c =  0.4924   60
 Side 2  free  transition at x/c =  0.2318   37

  15   rms: 0.1077E-02   max: 0.1011E-01   D at   38  2
       a =  2.000      CL =  1.6242
      Cm = -0.2753     CD =  0.01898   =>   CDf =  0.00770    CDp =  0.01128

 Side 1  free  transition at x/c =  0.4924   60
 Side 2  free  transition at x/c =  0.2317   37

  16   rms: 0.4547E-05   max: 0.4550E-04   D at   38  2
       a =  2.000      CL =  1.6242
      Cm = -0.2753     CD =  0.01898   =>   CDf =  0.00770    CDp =  0.01128

 Point added to stored polar  1
 Point written to save file  000123M0.04.log                                 
 Dump file unspecified or not available
 Calculating wake trajectory ...
 Calculating source influence matrix ...

 Solving BL system ...

 Side 1  free  transition at x/c =  0.4924   60
 Side 2  free  transition at x/c =  0.2317   37

   1   rms: 0.1499E+00   max: -.1136E+01   T at   37  2   RLX: 0.440
       a =  3.000      CL =  1.6691
      Cm = -0.2747     CD =  0.01942   =>   CDf =  0.00748    CDp =  0.01193

 Side 1  free  transition at x/c =  0.4829   61
 Side 2  free  transition at x/c =  0.2485   37

   2   rms: 0.1043E+00   max: 0.1023E+01   D at   37  2
       a =  3.000      CL =  1.7333
      Cm = -0.2752     CD =  0.02032   =>   CDf =  0.00759    CDp =  0.01273

 Side 1  free  transition at x/c =  0.4726   61
 Side 2  free  transition at x/c =  0.2610   37

   3   rms: 0.2425E-01   max: -.2035E+00   D at   61  1
       a =  3.000      CL =  1.7248
      Cm = -0.2738     CD =  0.01997   =>   CDf =  0.00783    CDp =  0.01214

 Side 1  free  transition at x/c =  0.4721   61
 Side 2  free  transition at x/c =  0.2593   37

   4   rms: 0.1350E-02   max: -.1274E-01   D at   62  1
       a =  3.000      CL =  1.7253
      Cm = -0.2739     CD =  0.02001   =>   CDf =  0.00775    CDp =  0.01225

 Side 1  free  transition at x/c =  0.4718   61
 Side 2  free  transition at x/c =  0.2592   37

   5   rms: 0.1421E-04   max: -.1242E-03   D at   62  1
       a =  3.000      CL =  1.7253
      Cm = -0.2739     CD =  0.02001   =>   CDf =  0.00776    CDp =  0.01225

 Point added to stored polar  1
 Point written to save file  000123M0.04.log                                 
 Dump file unspecified or not available
 Calculating wake trajectory ...
 Calculating source influence matrix ...

 Solving BL system ...

 Side 1  free  transition at x/c =  0.4718   61
 Side 2  free  transition at x/c =  0.2592   37

   1   rms: 0.1436E+00   max: -.1032E+01   T at   37  2   RLX: 0.484
       a =  4.000      CL =  1.7705
      Cm = -0.2726     CD =  0.02057   =>   CDf =  0.00778    CDp =  0.01279

 Side 1  free  transition at x/c =  0.4622   60
 Side 2  free  transition at x/c =  0.2711   37

   2   rms: 0.9510E-01   max: -.6828E+00   T at   37  2   RLX: 0.732
       a =  4.000      CL =  1.8022
      Cm = -0.2709     CD =  0.02147   =>   CDf =  0.00788    CDp =  0.01358

 Side 1  free  transition at x/c =  0.4543   60
 Side 2  free  transition at x/c =  0.2869   38

   3   rms: 0.4729E-01   max: 0.6324E+00   D at   38  2
       a =  4.000      CL =  1.8172
      Cm = -0.2710     CD =  0.02140   =>   CDf =  0.00754    CDp =  0.01385

 Side 1  free  transition at x/c =  0.4517   61
 Side 2  free  transition at x/c =  0.2888   37

   4   rms: 0.4744E-02   max: 0.4120E-01   D at   37  2
       a =  4.000      CL =  1.8173
      Cm = -0.2711     CD =  0.02140   =>   CDf =  0.00779    CDp =  0.01361

 Side 1  free  transition at x/c =  0.4518   61
 Side 2  free  transition at x/c =  0.2882   37

   5   rms: 0.8734E-04   max: 0.9774E-03   D at    5  1
       a =  4.000      CL =  1.8173
      Cm = -0.2711     CD =  0.02140   =>   CDf =  0.00778    CDp =  0.01361

 Point added to stored polar  1
 Point written to save file  000123M0.04.log                                 
 Dump file unspecified or not available
 Calculating wake trajectory ...
 Calculating source influence matrix ...

 Solving BL system ...

 Side 1  free  transition at x/c =  0.4518   61
 Side 2  free  transition at x/c =  0.2882   37

   1   rms: 0.1354E+00   max: -.8478E+00   T at   37  2   RLX: 0.590
       a =  5.000      CL =  1.8670
      Cm = -0.2687     CD =  0.02230   =>   CDf =  0.00780    CDp =  0.01450

 Side 1  free  transition at x/c =  0.4412   60
 Side 2  free  transition at x/c =  0.3083   38

   2   rms: 0.5320E-01   max: 0.4053E+00   D at   38  2
       a =  5.000      CL =  1.8865
      Cm = -0.2645     CD =  0.02319   =>   CDf =  0.00762    CDp =  0.01557

 Side 1  free  transition at x/c =  0.4322   61
 Side 2  free  transition at x/c =  0.3160   37

   3   rms: 0.1399E-01   max: -.1057E+00   D at   38  2
       a =  5.000      CL =  1.8914
      Cm = -0.2655     CD =  0.02322   =>   CDf =  0.00781    CDp =  0.01541

 Side 1  free  transition at x/c =  0.4329   61
 Side 2  free  transition at x/c =  0.3178   37

   4   rms: 0.8873E-03   max: -.5142E-02   D at    6  1
       a =  5.000      CL =  1.8920
      Cm = -0.2656     CD =  0.02322   =>   CDf =  0.00780    CDp =  0.01542

 Side 1  free  transition at x/c =  0.4328   61
 Side 2  free  transition at x/c =  0.3179   37

   5   rms: 0.3809E-05   max: 0.3412E-04   D at   38  2
       a =  5.000      CL =  1.8920
      Cm = -0.2656     CD =  0.02322   =>   CDf =  0.00781    CDp =  0.01542

 Point added to stored polar  1
 Point written to save file  000123M0.04.log                                 
 Dump file unspecified or not available
 Calculating wake trajectory ...
 Calculating source influence matrix ...

 Solving BL system ...

 Side 1  free  transition at x/c =  0.4328   61
 Side 2  free  transition at x/c =  0.3179   37

   1   rms: 0.1375E+00   max: -.1088E+01   T at   37  2   RLX: 0.459
       a =  6.000      CL =  1.9222
      Cm = -0.2625     CD =  0.02427   =>   CDf =  0.00783    CDp =  0.01644

 MRCHDU: Convergence failed at  39  side 2    Res =  0.3866E+01
 MRCHDU: Convergence failed at  40  side 2    Res =  0.5412E+01
 MRCHDU: Convergence failed at  41  side 2    Res =  0.2862E+01
 MRCHDU: Convergence failed at  42  side 2    Res =  0.4925E+01
 MRCHDU: Convergence failed at  43  side 2    Res =  0.7109E+01
 MRCHDU: Convergence failed at  44  side 2    Res =  0.9010E+01
 MRCHDU: Convergence failed at  45  side 2    Res =  0.1043E+02
 MRCHDU: Convergence failed at  46  side 2    Res =  0.1125E+02
 MRCHDU: Convergence failed at  47  side 2    Res =  0.1156E+02
 MRCHDU: Convergence failed at  48  side 2    Res =  0.1155E+02
 MRCHDU: Convergence failed at  49  side 2    Res =  0.1135E+02
 MRCHDU: Convergence failed at  50  side 2    Res =  0.9724E+01
 MRCHDU: Convergence failed at  51  side 2    Res =  0.9470E+01
 MRCHDU: Convergence failed at  52  side 2    Res =  0.9200E+01
 MRCHDU: Convergence failed at  53  side 2    Res =  0.8908E+01
 MRCHDU: Convergence failed at  54  side 2    Res =  0.8584E+01
 MRCHDU: Convergence failed at  55  side 2    Res =  0.8204E+01
 MRCHDU: Convergence failed at  56  side 2    Res =  0.7741E+01
 MRCHDU: Convergence failed at  57  side 2    Res =  0.7166E+01
 MRCHDU: Convergence failed at  58  side 2    Res =  0.6456E+01
 MRCHDU: Convergence failed at  59  side 2    Res =  0.5593E+01
 MRCHDU: Convergence failed at  60  side 2    Res =  0.4626E+01
 MRCHDU: Convergence failed at  61  side 2    Res =  0.3521E+01
 MRCHDU: Convergence failed at  62  side 2    Res =  0.7629E+01
 MRCHDU: Convergence failed at  63  side 2    Res =  0.6437E+01
 MRCHDU: Convergence failed at  64  side 2    Res =  0.6492E+01
 MRCHDU: Convergence failed at  65  side 2    Res =  0.7959E+01
 Side 1  free  transition at x/c =  0.4241   60
 Side 2  free  transition at x/c =  0.3372   38

   2   rms: 0.2154E+00   max: 0.1185E+01   T at   38  2   RLX: 0.702
       a =  6.000      CL =  1.9163
      Cm = -0.2510     CD =  0.02484   =>   CDf =  0.00690    CDp =  0.01795

 MRCHDU: Convergence failed at  51  side 2    Res =  0.1666E+00
 MRCHDU: Convergence failed at  52  side 2    Res =  0.1861E+00
 MRCHDU: Convergence failed at  53  side 2    Res =  0.2102E+00
 MRCHDU: Convergence failed at  54  side 2    Res =  0.2369E+00
 MRCHDU: Convergence failed at  55  side 2    Res =  0.2653E+00
 MRCHDU: Convergence failed at  56  side 2    Res =  0.2952E+00
 MRCHDU: Convergence failed at  57  side 2    Res =  0.3258E+00
 MRCHDU: Convergence failed at  58  side 2    Res =  0.3575E+00
 MRCHDU: Convergence failed at  59  side 2    Res =  0.3899E+00
 MRCHDU: Convergence failed at  60  side 2    Res =  0.4223E+00
 MRCHDU: Convergence failed at  61  side 2    Res =  0.4543E+00
 MRCHDU: Convergence failed at  62  side 2    Res =  0.4854E+00
 MRCHDU: Convergence failed at  63  side 2    Res =  0.5149E+00
 MRCHDU: Convergence failed at  64  side 2    Res =  0.5420E+00
 MRCHDU: Convergence failed at  65  side 2    Res =  0.5650E+00
 MRCHDU: Convergence failed at  66  side 2    Res =  0.8044E+00
 MRCHDU: Convergence failed at  67  side 2    Res =  0.9806E+00
 MRCHDU: Convergence failed at  68  side 2    Res =  0.1147E+01
 MRCHDU: Convergence failed at  69  side 2    Res =  0.1305E+01
 MRCHDU: Convergence failed at  70  side 2    Res =  0.1452E+01
 MRCHDU: Convergence failed at  71  side 2    Res =  0.1545E+01
 MRCHDU: Convergence failed at  72  side 2    Res =  0.1662E+01
 MRCHDU: Convergence failed at  73  side 2    Res =  0.2982E+01
 Side 1  free  transition at x/c =  0.4175   60
 Side 2  free  transition at x/c =  0.3167   37

   3   rms: 0.2326E+01   max: -.7444E+01   T at   37  2   RLX: 0.067
       a =  6.000      CL =  1.8378
      Cm = -0.2736     CD =  0.04543   =>   CDf =  0.00639    CDp =  0.03904

 Side 1  free  transition at x/c =  0.4221   59
 Side 2  free  transition at x/c =  0.3397   40

   4   rms: 0.7294E+00   max: -.4325E+01   D at   74  2   RLX: 0.116
       a =  6.000      CL =  1.8424
      Cm = -0.2753     CD =  0.03527   =>   CDf =  0.00625    CDp =  0.02902

 Side 1  free  transition at x/c =  0.4220   59
 Side 2  free  transition at x/c =  0.3429   40

   5   rms: 0.6570E+00   max: -.3683E+01   D at   66  2   RLX: 0.136
       a =  6.000      CL =  1.8612
      Cm = -0.2756     CD =  0.03160   =>   CDf =  0.00616    CDp =  0.02544

 Side 1  free  transition at x/c =  0.4212   60
 Side 2  free  transition at x/c =  0.3505   39

   6   rms: 0.3093E+01   max: -.2118E+02   T at   39  2   RLX: 0.024
       a =  6.000      CL =  1.8795
      Cm = -0.2797     CD =  0.03135   =>   CDf =  0.00650    CDp =  0.02485

 Side 1  free  transition at x/c =  0.4207   60
 Side 2  free  transition at x/c =  0.3800   40

   7   rms: 0.3442E+00   max: 0.3755E+01   T at   40  2   RLX: 0.176
       a =  6.000      CL =  1.8835
      Cm = -0.2745     CD =  0.02852   =>   CDf =  0.00663    CDp =  0.02189

 Side 1  free  transition at x/c =  0.4199   60
 Side 2  free  transition at x/c =  0.3530   39

   8   rms: 0.7948E+00   max: -.3679E+01   D at   52  2   RLX: 0.136
       a =  6.000      CL =  1.9102
      Cm = -0.2769     CD =  0.02760   =>   CDf =  0.00666    CDp =  0.02094

 Side 1  free  transition at x/c =  0.4190   60
 Side 2  free  transition at x/c =  0.3784   40

   9   rms: 0.2145E+01   max: -.1184E+02   T at   40  2   RLX: 0.042
       a =  6.000      CL =  1.9180
      Cm = -0.2776     CD =  0.02683   =>   CDf =  0.00688    CDp =  0.01994

 MRCHDU: Convergence failed at  42  side 2    Res =  0.3330E+01
 MRCHDU: Convergence failed at  43  side 2    Res =  0.1480E+02
 MRCHDU: Convergence failed at  44  side 2    Res =  0.2734E+02
 MRCHDU: Convergence failed at  45  side 2    Res =  0.1494E+02
 MRCHDU: Convergence failed at  46  side 2    Res =  0.1233E+02
 MRCHDU: Convergence failed at  47  side 2    Res =  0.1225E+02
 MRCHDU: Convergence failed at  48  side 2    Res =  0.1579E+02
 MRCHDU: Convergence failed at  49  side 2    Res =  0.3383E+02
 MRCHDU: Convergence failed at  50  side 2    Res =  0.1470E+02
 MRCHDU: Convergence failed at  51  side 2    Res =  0.1314E+02
 MRCHDU: Convergence failed at  52  side 2    Res =  0.1495E+02
 MRCHDU: Convergence failed at  53  side 2    Res =  0.1374E+02
 MRCHDU: Convergence failed at  54  side 2    Res =  0.1256E+02
 MRCHDU: Convergence failed at  55  side 2    Res =  0.8485E+01
 MRCHDU: Convergence failed at  56  side 2    Res =  0.9244E+01
 MRCHDU: Convergence failed at  57  side 2    Res =  0.1015E+02
 MRCHDU: Convergence failed at  58  side 2    Res =  0.1102E+02
 MRCHDU: Convergence failed at  59  side 2    Res =  0.1185E+02
 MRCHDU: Convergence failed at  60  side 2    Res =  0.1273E+02
 MRCHDU: Convergence failed at  61  side 2    Res =  0.1402E+02
 MRCHDU: Convergence failed at  62  side 2    Res =  0.1648E+02
 MRCHDU: Convergence failed at  63  side 2    Res =  0.2563E+02
 MRCHDU: Convergence failed at  64  side 2    Res =  0.5624E+01
 Side 1  free  transition at x/c =  0.4186   60
 Side 2  free  transition at x/c =  0.4155   42

  10   rms: 0.2898E+00   max: 0.1472E+01   T at   43  2   RLX: 0.421
       a =  6.000      CL =  1.8822
      Cm = -0.2482     CD =  0.02488   =>   CDf =  0.00642    CDp =  0.01846

 Side 1  free  transition at x/c =  0.4166   60
 Side 2  free  transition at x/c =  0.3761   40

  11   rms: 0.1183E+00   max: 0.7402E+00   T at   40  2   RLX: 0.776
       a =  6.000      CL =  1.9450
      Cm = -0.2580     CD =  0.02533   =>   CDf =  0.00750    CDp =  0.01783

 Side 1  free  transition at x/c =  0.4147   61
 Side 2  free  transition at x/c =  0.3544   38

  12   rms: 0.4466E-01   max: -.5306E+00   D at   40  2   RLX: 0.942
       a =  6.000      CL =  1.9598
      Cm = -0.2599     CD =  0.02560   =>   CDf =  0.00771    CDp =  0.01789

 Side 1  free  transition at x/c =  0.4143   61
 Side 2  free  transition at x/c =  0.3507   38

  13   rms: 0.7135E-02   max: -.1676E+00   D at   40  2
       a =  6.000      CL =  1.9603
      Cm = -0.2599     CD =  0.02564   =>   CDf =  0.00771    CDp =  0.01793

 Side 1  free  transition at x/c =  0.4143   61
 Side 2  free  transition at x/c =  0.3490   38

  14   rms: 0.1014E-02   max: -.2347E-01   D at   40  2
       a =  6.000      CL =  1.9603
      Cm = -0.2599     CD =  0.02564   =>   CDf =  0.00771    CDp =  0.01793

 Side 1  free  transition at x/c =  0.4143   61
 Side 2  free  transition at x/c =  0.3489   38

  15   rms: 0.1630E-04   max: -.3835E-03   D at   40  2
       a =  6.000      CL =  1.9603
      Cm = -0.2599     CD =  0.02564   =>   CDf =  0.00771    CDp =  0.01793

 Point added to stored polar  1
 Point written to save file  000123M0.04.log                                 
 Dump file unspecified or not available
 Calculating wake trajectory ...
 Calculating source influence matrix ...

 Solving BL system ...

 Side 1  free  transition at x/c =  0.4143   61
 Side 2  free  transition at x/c =  0.3489   38

   1   rms: 0.1296E+00   max: -.8374E+00   T at   38  2   RLX: 0.597
       a =  7.000      CL =  1.9964
      Cm = -0.2562     CD =  0.02736   =>   CDf =  0.00773    CDp =  0.01963

 Side 1  free  transition at x/c =  0.4037   60
 Side 2  free  transition at x/c =  0.3673   39

   2   rms: 0.5349E-01   max: -.3972E+00   T at   39  2
       a =  7.000      CL =  2.0154
      Cm = -0.2533     CD =  0.02902   =>   CDf =  0.00749    CDp =  0.02152

 Side 1  free  transition at x/c =  0.3960   61
 Side 2  free  transition at x/c =  0.3794   38

   3   rms: 0.3318E-01   max: -.2815E+00   D at   39  2
       a =  7.000      CL =  2.0208
      Cm = -0.2540     CD =  0.02886   =>   CDf =  0.00766    CDp =  0.02120

 Side 1  free  transition at x/c =  0.3962   61
 Side 2  free  transition at x/c =  0.3851   39

   4   rms: 0.1372E-01   max: 0.2233E+00   D at   39  2
       a =  7.000      CL =  2.0220
      Cm = -0.2542     CD =  0.02882   =>   CDf =  0.00763    CDp =  0.02119

 Side 1  free  transition at x/c =  0.3961   61
 Side 2  free  transition at x/c =  0.3838   39

   5   rms: 0.1346E-02   max: 0.1639E-01   D at   39  2
       a =  7.000      CL =  2.0220
      Cm = -0.2542     CD =  0.02882   =>   CDf =  0.00763    CDp =  0.02119

 Side 1  free  transition at x/c =  0.3961   61
 Side 2  free  transition at x/c =  0.3836   39

   6   rms: 0.7281E-05   max: 0.7734E-04   D at   39  2
       a =  7.000      CL =  2.0220
      Cm = -0.2542     CD =  0.02882   =>   CDf =  0.00763    CDp =  0.02119

 Point added to stored polar  1
 Point written to save file  000123M0.04.log                                 
 Dump file unspecified or not available
 Calculating wake trajectory ...
 Calculating source influence matrix ...

 Solving BL system ...

 Side 1  free  transition at x/c =  0.3961   61
 Side 2  free  transition at x/c =  0.3836   39

   1   rms: 0.1395E+00   max: -.1069E+01   T at   39  2   RLX: 0.468
       a =  8.000      CL =  2.0479
      Cm = -0.2516     CD =  0.03055   =>   CDf =  0.00766    CDp =  0.02289

 Side 1  free  transition at x/c =  0.3875   61
 Side 2  free  transition at x/c =  0.3979   39

   2   rms: 0.9589E-01   max: -.8833E+00   T at   39  2   RLX: 0.566
       a =  8.000      CL =  2.0804
      Cm = -0.2511     CD =  0.03149   =>   CDf =  0.00775    CDp =  0.02373

 MRCHDU: Convergence failed at  41  side 2    Res =  0.4184E+01
 MRCHDU: Convergence failed at  42  side 2    Res =  0.2539E+02
 MRCHDU: Convergence failed at  43  side 2    Res =  0.6744E+01
 MRCHDU: Convergence failed at  44  side 2    Res =  0.5109E+01
 MRCHDU: Convergence failed at  45  side 2    Res =  0.5170E+01
 MRCHDU: Convergence failed at  46  side 2    Res =  0.5241E+01
 MRCHDU: Convergence failed at  47  side 2    Res =  0.5407E+01
 MRCHDU: Convergence failed at  48  side 2    Res =  0.5505E+01
 MRCHDU: Convergence failed at  49  side 2    Res =  0.5513E+01
 MRCHDU: Convergence failed at  50  side 2    Res =  0.5423E+01
 MRCHDU: Convergence failed at  51  side 2    Res =  0.5256E+01
 MRCHDU: Convergence failed at  52  side 2    Res =  0.5221E+01
 MRCHDU: Convergence failed at  53  side 2    Res =  0.5029E+01
 MRCHDU: Convergence failed at  54  side 2    Res =  0.4868E+01
 MRCHDU: Convergence failed at  55  side 2    Res =  0.4830E+01
 MRCHDU: Convergence failed at  56  side 2    Res =  0.6845E+01
 MRCHDU: Convergence failed at  57  side 2    Res =  0.9468E+01
 Side 1  free  transition at x/c =  0.3824   60
 Side 2  free  transition at x/c =  0.4187   40

   3   rms: 0.1120E+00   max: -.6581E+00   D at   57  2   RLX: 0.760
       a =  8.000      CL =  2.0705
      Cm = -0.2474     CD =  0.03225   =>   CDf =  0.00679    CDp =  0.02546

 Side 1  free  transition at x/c =  0.3795   61
 Side 2  free  transition at x/c =  0.4003   38

   4   rms: 0.7688E-01   max: -.8548E+00   D at   41  2   RLX: 0.585
       a =  8.000      CL =  2.0735
      Cm = -0.2479     CD =  0.03306   =>   CDf =  0.00765    CDp =  0.02541

 MRCHDU: Convergence failed at  40  side 2    Res =  0.3042E+01
 MRCHDU: Convergence failed at  41  side 2    Res =  0.9031E+02
 MRCHDU: Convergence failed at  42  side 2    Res =  0.4085E+01
 MRCHDU: Convergence failed at  43  side 2    Res =  0.3846E+01
 MRCHDU: Convergence failed at  44  side 2    Res =  0.3841E+01
 MRCHDU: Convergence failed at  45  side 2    Res =  0.3918E+01
 MRCHDU: Convergence failed at  46  side 2    Res =  0.3998E+01
 MRCHDU: Convergence failed at  47  side 2    Res =  0.4091E+01
 MRCHDU: Convergence failed at  48  side 2    Res =  0.4185E+01
 MRCHDU: Convergence failed at  49  side 2    Res =  0.4285E+01
 MRCHDU: Convergence failed at  50  side 2    Res =  0.4389E+01
 MRCHDU: Convergence failed at  51  side 2    Res =  0.4530E+01
 MRCHDU: Convergence failed at  52  side 2    Res =  0.4646E+01
 MRCHDU: Convergence failed at  53  side 2    Res =  0.5968E+01
 MRCHDU: Convergence failed at  54  side 2    Res =  0.7494E+01
 MRCHDU: Convergence failed at  55  side 2    Res =  0.8903E+01
 MRCHDU: Convergence failed at  56  side 2    Res =  0.1526E+02
 MRCHDU: Convergence failed at  57  side 2    Res =  0.4774E+02
 Side 1  free  transition at x/c =  0.3789   61
 Side 2  free  transition at x/c =  0.4209   39

   5   rms: 0.1157E+00   max: 0.8224E+00   T at   39  2   RLX: 0.727
       a =  8.000      CL =  2.0702
      Cm = -0.2465     CD =  0.03255   =>   CDf =  0.00695    CDp =  0.02560

 Side 1  free  transition at x/c =  0.3786   61
 Side 2  free  transition at x/c =  0.4000   38

   6   rms: 0.9189E-01   max: -.9105E+00   D at   41  2   RLX: 0.549
       a =  8.000      CL =  2.0742
      Cm = -0.2478     CD =  0.03320   =>   CDf =  0.00768    CDp =  0.02552

 MRCHDU: Convergence failed at  40  side 2    Res =  0.3652E+01
 MRCHDU: Convergence failed at  41  side 2    Res =  0.2517E+02
 MRCHDU: Convergence failed at  42  side 2    Res =  0.2304E+02
 MRCHDU: Convergence failed at  43  side 2    Res =  0.3272E+03
 MRCHDU: Convergence failed at  44  side 2    Res =  0.1915E+02
 MRCHDU: Convergence failed at  45  side 2    Res =  0.2109E+02
 MRCHDU: Convergence failed at  46  side 2    Res =  0.1921E+02
 MRCHDU: Convergence failed at  47  side 2    Res =  0.1624E+02
 MRCHDU: Convergence failed at  48  side 2    Res =  0.1349E+02
 MRCHDU: Convergence failed at  49  side 2    Res =  0.1114E+02
 MRCHDU: Convergence failed at  50  side 2    Res =  0.9149E+01
 MRCHDU: Convergence failed at  51  side 2    Res =  0.7123E+01
 MRCHDU: Convergence failed at  52  side 2    Res =  0.5912E+01
 MRCHDU: Convergence failed at  53  side 2    Res =  0.4845E+01
 MRCHDU: Convergence failed at  54  side 2    Res =  0.4024E+01
 MRCHDU: Convergence failed at  55  side 2    Res =  0.3309E+01
 MRCHDU: Convergence failed at  56  side 2    Res =  0.2380E+01
 MRCHDU: Convergence failed at  57  side 2    Res =  0.2355E+01
 Side 1  free  transition at x/c =  0.3786   61
 Side 2  free  transition at x/c =  0.4218   40

   7   rms: 0.2006E+00   max: -.1035E+01   D at   56  2   RLX: 0.483
       a =  8.000      CL =  2.0670
      Cm = -0.2449     CD =  0.03246   =>   CDf =  0.00684    CDp =  0.02562

 Side 1  free  transition at x/c =  0.3785   61
 Side 2  free  transition at x/c =  0.4225   40

   8   rms: 0.4796E-01   max: -.5861E+00   D at   41  2   RLX: 0.853
       a =  8.000      CL =  2.0750
      Cm = -0.2480     CD =  0.03288   =>   CDf =  0.00762    CDp =  0.02525

 Side 1  free  transition at x/c =  0.3785   61
 Side 2  free  transition at x/c =  0.4225   40

   9   rms: 0.1010E-01   max: -.1700E+00   D at   41  2
       a =  8.000      CL =  2.0762
      Cm = -0.2485     CD =  0.03287   =>   CDf =  0.00752    CDp =  0.02535

 Side 1  free  transition at x/c =  0.3785   61
 Side 2  free  transition at x/c =  0.4223   40

  10   rms: 0.7759E-03   max: -.1427E-01   D at   41  2
       a =  8.000      CL =  2.0762
      Cm = -0.2485     CD =  0.03287   =>   CDf =  0.00751    CDp =  0.02536

 Side 1  free  transition at x/c =  0.3785   61
 Side 2  free  transition at x/c =  0.4221   40

  11   rms: 0.1039E-04   max: -.2161E-03   D at   41  2
       a =  8.000      CL =  2.0762
      Cm = -0.2485     CD =  0.03287   =>   CDf =  0.00751    CDp =  0.02536

 Point added to stored polar  1
 Point written to save file  000123M0.04.log                                 
 Dump file unspecified or not available
 Calculating wake trajectory ...
 Calculating source influence matrix ...

 Solving BL system ...

 Side 1  free  transition at x/c =  0.3785   61
 Side 2  free  transition at x/c =  0.4221   40

   1   rms: 0.1484E+00   max: -.1052E+01   T at   40  2   RLX: 0.475
       a =  9.000      CL =  2.0997
      Cm = -0.2460     CD =  0.03507   =>   CDf =  0.00753    CDp =  0.02753

 Side 1  free  transition at x/c =  0.3701   61
 Side 2  free  transition at x/c =  0.4405   40

   2   rms: 0.8695E-01   max: -.8676E+00   T at   40  2   RLX: 0.576
       a =  9.000      CL =  2.1240
      Cm = -0.2445     CD =  0.03620   =>   CDf =  0.00760    CDp =  0.02860

 MRCHDU: Convergence failed at  42  side 2    Res =  0.6165E+01
 MRCHDU: Convergence failed at  43  side 2    Res =  0.3416E+01
 MRCHDU: Convergence failed at  44  side 2    Res =  0.7516E+01
 MRCHDU: Convergence failed at  45  side 2    Res =  0.1678E+02
 MRCHDU: Convergence failed at  46  side 2    Res =  0.3404E+02
 MRCHDU: Convergence failed at  47  side 2    Res =  0.5018E+02
 MRCHDU: Convergence failed at  48  side 2    Res =  0.4448E+02
 MRCHDU: Convergence failed at  49  side 2    Res =  0.2934E+02
 MRCHDU: Convergence failed at  50  side 2    Res =  0.1798E+02
 MRCHDU: Convergence failed at  51  side 2    Res =  0.1133E+02
 MRCHDU: Convergence failed at  52  side 2    Res =  0.7373E+01
 MRCHDU: Convergence failed at  53  side 2    Res =  0.4631E+01
 MRCHDU: Convergence failed at  54  side 2    Res =  0.3210E+01
 Side 1  free  transition at x/c =  0.3657   60
 Side 2  free  transition at x/c =  0.4635   42

   3   rms: 0.1617E+00   max: -.1013E+01   D at   52  2   RLX: 0.493
       a =  9.000      CL =  2.1171
      Cm = -0.2417     CD =  0.03669   =>   CDf =  0.00705    CDp =  0.02963

 Side 1  free  transition at x/c =  0.3637   60
 Side 2  free  transition at x/c =  0.4688   42

   4   rms: 0.3709E-01   max: -.4896E+00   D at   43  2
       a =  9.000      CL =  2.1215
      Cm = -0.2426     CD =  0.03793   =>   CDf =  0.00746    CDp =  0.03046

 Side 1  free  transition at x/c =  0.3615   60
 Side 2  free  transition at x/c =  0.4669   42

   5   rms: 0.3709E-02   max: 0.7658E-01   D at   44  2
       a =  9.000      CL =  2.1226
      Cm = -0.2427     CD =  0.03782   =>   CDf =  0.00733    CDp =  0.03048

 Side 1  free  transition at x/c =  0.3616   60
 Side 2  free  transition at x/c =  0.4671   42

   6   rms: 0.1748E-03   max: -.3616E-02   D at   44  2
       a =  9.000      CL =  2.1227
      Cm = -0.2428     CD =  0.03782   =>   CDf =  0.00733    CDp =  0.03049

 Side 1  free  transition at x/c =  0.3616   60
 Side 2  free  transition at x/c =  0.4670   42

   7   rms: 0.8255E-05   max: 0.2126E-03   D at    2  2
       a =  9.000      CL =  2.1227
      Cm = -0.2428     CD =  0.03782   =>   CDf =  0.00733    CDp =  0.03049

 Point added to stored polar  1
 Point written to save file  000123M0.04.log                                 
 Dump file unspecified or not available
 Calculating wake trajectory ...
 Calculating source influence matrix ...

 Solving BL system ...

 Side 1  free  transition at x/c =  0.3616   60
 Side 2  free  transition at x/c =  0.4670   42

   1   rms: 0.1398E+00   max: -.9281E+00   T at   42  2   RLX: 0.539
       a = 10.000      CL =  2.1430
      Cm = -0.2396     CD =  0.04102   =>   CDf =  0.00700    CDp =  0.03402

 Side 1  free  transition at x/c =  0.3521   61
 Side 2  free  transition at x/c =  0.4929   42

   2   rms: 0.7322E-01   max: -.5746E+00   T at   42  2   RLX: 0.870
       a = 10.000      CL =  2.1787
      Cm = -0.2386     CD =  0.04187   =>   CDf =  0.00700    CDp =  0.03487

 Side 1  free  transition at x/c =  0.3465   61
 Side 2  free  transition at x/c =  0.5255   43

   3   rms: 0.4421E-01   max: -.5424E+00   T at    2  1   RLX: 0.922
       a = 10.000      CL =  2.1605
      Cm = -0.2371     CD =  0.04375   =>   CDf =  0.00765    CDp =  0.03610

 Side 1  free  transition at x/c =  0.3454   60
 Side 2  free  transition at x/c =  0.5294   44

   4   rms: 0.3239E-02   max: -.3139E-01   D at    3  1
       a = 10.000      CL =  2.1605
      Cm = -0.2370     CD =  0.04377   =>   CDf =  0.00712    CDp =  0.03664

 Side 1  free  transition at x/c =  0.3451   60
 Side 2  free  transition at x/c =  0.5299   44

   5   rms: 0.8728E-03   max: 0.1038E-01   D at    4  2
       a = 10.000      CL =  2.1607
      Cm = -0.2370     CD =  0.04375   =>   CDf =  0.00711    CDp =  0.03663

 Side 1  free  transition at x/c =  0.3451   60
 Side 2  free  transition at x/c =  0.5300   44

   6   rms: 0.9034E-05   max: -.5032E-04   D at   81  2
       a = 10.000      CL =  2.1607
      Cm = -0.2370     CD =  0.04375   =>   CDf =  0.00711    CDp =  0.03663

 Point added to stored polar  1
 Point written to save file  000123M0.04.log                                 
 Dump file unspecified or not available
 Calculating wake trajectory ...
 Calculating source influence matrix ...

 Solving BL system ...

 Side 1  free  transition at x/c =  0.3451   60
 Side 2  free  transition at x/c =  0.5300   44

   1   rms: 0.1378E+00   max: -.8515E+00   C at   44  2   RLX: 0.587
       a = 11.000      CL =  2.1759
      Cm = -0.2336     CD =  0.04815   =>   CDf =  0.00676    CDp =  0.04139

 Side 1  free  transition at x/c =  0.3347   61
 Side 2  free  transition at x/c =  0.5780   46

   2   rms: 0.1330E+00   max: -.1599E+01   C at   46  2   RLX: 0.313
       a = 11.000      CL =  2.1848
      Cm = -0.2321     CD =  0.04856   =>   CDf =  0.00712    CDp =  0.04144

 Side 1  free  transition at x/c =  0.3332   60
 Side 2  free  transition at x/c =  0.5978   47

   3   rms: 0.1184E+00   max: -.1663E+01   C at   47  2   RLX: 0.301
       a = 11.000      CL =  2.1877
      Cm = -0.2323     CD =  0.04924   =>   CDf =  0.00711    CDp =  0.04213

 Side 1  free  transition at x/c =  0.3322   60
 Side 2  free  transition at x/c =  0.6144   48

   4   rms: 0.1326E+00   max: -.2005E+01   C at   48  2   RLX: 0.249
       a = 11.000      CL =  2.1900
      Cm = -0.2324     CD =  0.04956   =>   CDf =  0.00703    CDp =  0.04253

 Side 1  free  transition at x/c =  0.3315   60
 Side 2  free  transition at x/c =  0.6331   49

   5   rms: 0.1674E+00   max: -.2782E+01   C at   49  2   RLX: 0.180
       a = 11.000      CL =  2.1918
      Cm = -0.2326     CD =  0.04972   =>   CDf =  0.00697    CDp =  0.04275

 Side 1  free  transition at x/c =  0.3311   60
 Side 2  free  transition at x/c =  0.6513   49

   6   rms: 0.8851E-01   max: -.1438E+01   C at   49  2   RLX: 0.348
       a = 11.000      CL =  2.1936
      Cm = -0.2326     CD =  0.05002   =>   CDf =  0.00692    CDp =  0.04310

 Side 1  free  transition at x/c =  0.3305   60
 Side 2 forced transition at x/c =  1.0001   68

   7   rms: 0.3889E-01   max: -.3588E+00   D at   48  2
       a = 11.000      CL =  2.1920
      Cm = -0.2316     CD =  0.05036   =>   CDf =  0.00668    CDp =  0.04368

 Side 1  free  transition at x/c =  0.3293   60
 Side 2 forced transition at x/c =  1.0001   68

   8   rms: 0.7861E-02   max: 0.6045E-01   D at   45  2
       a = 11.000      CL =  2.1919
      Cm = -0.2315     CD =  0.05031   =>   CDf =  0.00668    CDp =  0.04363

 Side 1  free  transition at x/c =  0.3294   60
 Side 2 forced transition at x/c =  1.0001   68

   9   rms: 0.6953E-03   max: 0.5431E-02   D at   44  2
       a = 11.000      CL =  2.1919
      Cm = -0.2315     CD =  0.05031   =>   CDf =  0.00667    CDp =  0.04364

 Side 1  free  transition at x/c =  0.3294   60
 Side 2 forced transition at x/c =  1.0001   68

  10   rms: 0.5361E-05   max: 0.4235E-04   D at   44  2
       a = 11.000      CL =  2.1919
      Cm = -0.2315     CD =  0.05031   =>   CDf =  0.00667    CDp =  0.04364

 Point added to stored polar  1
 Point written to save file  000123M0.04.log                                 
 Dump file unspecified or not available
 Calculating wake trajectory ...
 Calculating source influence matrix ...

 Solving BL system ...

 Side 1  free  transition at x/c =  0.3294   60
 Side 2 forced transition at x/c =  1.0001   68

   1   rms: 0.1409E+00   max: 0.4259E+00   D at   79  1   RLX: 0.633
       a = 12.000      CL =  2.2002
      Cm = -0.2282     CD =  0.05667   =>   CDf =  0.00631    CDp =  0.05037

 Side 1  free  transition at x/c =  0.3180   61
 Side 2 forced transition at x/c =  1.0001   67

   2   rms: 0.4391E-01   max: -.2989E+00   D at   61  1
       a = 12.000      CL =  2.2244
      Cm = -0.2268     CD =  0.05747   =>   CDf =  0.00670    CDp =  0.05077

 Side 1  free  transition at x/c =  0.3149   60
 Side 2 forced transition at x/c =  1.0001   67

   3   rms: 0.9364E-02   max: -.4818E-01   C at   60  1
       a = 12.000      CL =  2.2172
      Cm = -0.2266     CD =  0.05845   =>   CDf =  0.00667    CDp =  0.05178

 Side 1  free  transition at x/c =  0.3138   60
 Side 2 forced transition at x/c =  1.0001   67

   4   rms: 0.9354E-03   max: -.6923E-02   D at   81  1
       a = 12.000      CL =  2.2179
      Cm = -0.2266     CD =  0.05828   =>   CDf =  0.00661    CDp =  0.05167

 Side 1  free  transition at x/c =  0.3138   60
 Side 2 forced transition at x/c =  1.0001   67

   5   rms: 0.4606E-04   max: -.3574E-03   D at   80  2
       a = 12.000      CL =  2.2179
      Cm = -0.2266     CD =  0.05829   =>   CDf =  0.00662    CDp =  0.05167

 Point added to stored polar  1
 Point written to save file  000123M0.04.log                                 
 Dump file unspecified or not available
 Calculating wake trajectory ...
 Calculating source influence matrix ...

 Solving BL system ...

 Side 1  free  transition at x/c =  0.3138   60
 Side 2 forced transition at x/c =  1.0001   67

   1   rms: 0.1189E+00   max: 0.4627E+00   D at   78  1   RLX: 0.561
       a = 13.000      CL =  2.2189
      Cm = -0.2241     CD =  0.06512   =>   CDf =  0.00623    CDp =  0.05888

 Side 1  free  transition at x/c =  0.3044   61
 Side 2 forced transition at x/c =  1.0001   66

   2   rms: 0.4806E-01   max: -.2263E+00   D at   61  1
       a = 13.000      CL =  2.2316
      Cm = -0.2223     CD =  0.06839   =>   CDf =  0.00649    CDp =  0.06190

 Side 1  free  transition at x/c =  0.2989   60
 Side 2 forced transition at x/c =  1.0001   66

   3   rms: 0.1001E-01   max: -.6440E-01   D at   81  1
       a = 13.000      CL =  2.2383
      Cm = -0.2223     CD =  0.06704   =>   CDf =  0.00652    CDp =  0.06052

 Side 1  free  transition at x/c =  0.2986   60
 Side 2 forced transition at x/c =  1.0001   66

   4   rms: 0.1079E-02   max: -.5242E-02   D at   80  1
       a = 13.000      CL =  2.2393
      Cm = -0.2223     CD =  0.06707   =>   CDf =  0.00653    CDp =  0.06054

 Side 1  free  transition at x/c =  0.2986   60
 Side 2 forced transition at x/c =  1.0001   66

   5   rms: 0.4488E-04   max: -.3336E-03   D at   80  2
       a = 13.000      CL =  2.2393
      Cm = -0.2223     CD =  0.06708   =>   CDf =  0.00653    CDp =  0.06055

 Point added to stored polar  1
 Point written to save file  000123M0.04.log                                 
 Dump file unspecified or not available
 Calculating wake trajectory ...
 Calculating source influence matrix ...

 Solving BL system ...

 Side 1  free  transition at x/c =  0.2986   60
 Side 2 forced transition at x/c =  1.0001   66

   1   rms: 0.1286E+00   max: 0.6231E+00   D at   78  1   RLX: 0.492
       a = 14.000      CL =  2.2234
      Cm = -0.2204     CD =  0.07582   =>   CDf =  0.00614    CDp =  0.06968

 Side 1  free  transition at x/c =  0.2902   61
 Side 2 forced transition at x/c =  1.0001   65

   2   rms: 0.5771E-01   max: 0.3305E+00   D at    2  1
       a = 14.000      CL =  2.2350
      Cm = -0.2189     CD =  0.08028   =>   CDf =  0.00629    CDp =  0.07398

 Side 1  free  transition at x/c =  0.2819   60
 Side 2 forced transition at x/c =  1.0001   65

   3   rms: 0.1357E-01   max: -.9130E-01   D at   80  1
       a = 14.000      CL =  2.2428
      Cm = -0.2186     CD =  0.07829   =>   CDf =  0.00634    CDp =  0.07194

 Side 1  free  transition at x/c =  0.2822   60
 Side 2 forced transition at x/c =  1.0001   65

   4   rms: 0.1494E-02   max: -.6701E-02   D at   79  2
       a = 14.000      CL =  2.2442
      Cm = -0.2187     CD =  0.07836   =>   CDf =  0.00635    CDp =  0.07200

 Side 1  free  transition at x/c =  0.2822   60
 Side 2 forced transition at x/c =  1.0001   65

   5   rms: 0.6886E-04   max: -.4618E-03   D at   80  2
       a = 14.000      CL =  2.2443
      Cm = -0.2188     CD =  0.07837   =>   CDf =  0.00636    CDp =  0.07201

 Point added to stored polar  1
 Point written to save file  000123M0.04.log                                 
 Dump file unspecified or not available
 Calculating wake trajectory ...
 Calculating source influence matrix ...

 Solving BL system ...

 Side 1  free  transition at x/c =  0.2822   60
 Side 2 forced transition at x/c =  1.0001   65

   1   rms: 0.1385E+00   max: 0.7314E+00   D at   77  1   RLX: 0.436
       a = 15.000      CL =  2.2206
      Cm = -0.2178     CD =  0.08829   =>   CDf =  0.00639    CDp =  0.08190

 Side 1  free  transition at x/c =  0.2741   60
 Side 2 forced transition at x/c =  1.0001   65

   2   rms: 0.5993E-01   max: 0.2566E+00   D at   77  1
       a = 15.000      CL =  2.2242
      Cm = -0.2165     CD =  0.09462   =>   CDf =  0.00567    CDp =  0.08894

 Side 1  free  transition at x/c =  0.2657   60
 Side 2 forced transition at x/c =  1.0001   64

   3   rms: 0.1545E-01   max: -.1080E+00   D at   79  1
       a = 15.000      CL =  2.2344
      Cm = -0.2161     CD =  0.09166   =>   CDf =  0.00610    CDp =  0.08556

 Side 1  free  transition at x/c =  0.2655   60
 Side 2 forced transition at x/c =  1.0001   64

   4   rms: 0.2214E-02   max: -.8681E-02   D at   83  2
       a = 15.000      CL =  2.2365
      Cm = -0.2162     CD =  0.09174   =>   CDf =  0.00611    CDp =  0.08563

 Side 1  free  transition at x/c =  0.2654   60
 Side 2 forced transition at x/c =  1.0001   64

   5   rms: 0.1104E-03   max: -.7198E-03   D at   79  2
       a = 15.000      CL =  2.2366
      Cm = -0.2162     CD =  0.09176   =>   CDf =  0.00612    CDp =  0.08565

 Side 1  free  transition at x/c =  0.2654   60
 Side 2 forced transition at x/c =  1.0001   64

   6   rms: 0.3194E-05   max: -.2329E-04   D at   80  2
       a = 15.000      CL =  2.2366
      Cm = -0.2162     CD =  0.09177   =>   CDf =  0.00612    CDp =  0.08565

 Point added to stored polar  1
 Point written to save file  000123M0.04.log                                 
 Dump file unspecified or not available

.OPERva   c>  
 XFOIL   c>  
0.1
resp: 
 ===================================================
  XFOIL Version 6.97
  Copyright (C) 2000   Mark Drela, Harold Youngren

  This software comes with ABSOLUTELY NO WARRANTY,
    subject to the GNU General Public License.

  Caveat computor
 ===================================================

 File  xfoil.def  not found

   QUIT    Exit program

  .OPER    Direct operating point(s)
  .MDES    Complex mapping design routine
  .QDES    Surface speed design routine
  .GDES    Geometry design routine

   SAVE f  Write airfoil to labeled coordinate file
   PSAV f  Write airfoil to plain coordinate file
   ISAV f  Write airfoil to ISES coordinate file
   MSAV f  Write airfoil to MSES coordinate file
   REVE    Reverse written-airfoil node ordering
   DELI i  Change written-airfoil file delimiters

   LOAD f  Read buffer airfoil from coordinate file
   NACA i  Set NACA 4,5-digit airfoil and buffer airfoil
   INTE    Set buffer airfoil by interpolating two airfoils
   NORM    Buffer airfoil normalization toggle
   HALF    Halve the number of points in buffer airfoil
   XYCM rr Change CM reference location, currently  0.25000 0.00000

   BEND    Display structural properties of current airfoil

   PCOP    Set current-airfoil panel nodes directly from buffer airfoil points
   PANE    Set current-airfoil panel nodes ( 160 ) based on curvature
  .PPAR    Show/change paneling

  .PLOP    Plotting options

   WDEF f  Write  current-settings file
   RDEF f  Reread current-settings file
   NAME s  Specify new airfoil name
   NINC    Increment name version number

   Z       Zoom    | (available in all menus)
   U       Unzoom  | 

 XFOIL   c>   ...............................................

  G raphics-enable flag:        T
  S ize of plot object          10.00"
  A spect ratio of plot object   0.5500
  P age dimensions              11.00 x  8.50"
  M argins from page edges       0.00",  0.00"
  F ont size (relative)          0.0150
  W indow/screen size fraction   0.8000
  B lowup input method:        Cursor    
  O rientation of plot:        Landscape 
  C olor PostScript output?     F

      Option, Value   (or <Return>)    c>   ...............................................

  G raphics-enable flag:        F
  S ize of plot object          10.00"
  A spect ratio of plot object   0.5500
  P age dimensions              11.00 x  8.50"
  M argins from page edges       0.00",  0.00"
  F ont size (relative)          0.0150
  W indow/screen size fraction   0.8000
  B lowup input method:        Cursor    
  O rientation of plot:        Landscape 
  C olor PostScript output?     F

      Option, Value   (or <Return>)    c>  
 XFOIL   c>  
 Labeled airfoil file.  Name:  000123                                          

 Number of input coordinate points: 200
 Clockwise ordering
 Max thickness =     0.177180  at x =   0.182
 Max camber    =     0.122800  at x =   0.468

  LE  x,y  =  -0.00003   0.00181  |   Chord =   0.99991
  TE  x,y  =   0.99988   0.00006  |

 Current airfoil nodes set from buffer airfoil nodes ( 200 )

 XFOIL   c>  
 You are working with the buffer airfoil

.GDES   c>  
  i       x        y      angle
   2   0.9990   0.0004    0.029
   3   0.9978   0.0010   -0.016
   4   0.9961   0.0018    0.005
   5   0.9938   0.0028    0.023
   6   0.9911   0.0040    0.039
   7   0.9880   0.0054    0.007
   8   0.9843   0.0070    0.034
   9   0.9801   0.0089    0.046
  10   0.9755   0.0109    0.035
  11   0.9704   0.0132    0.053
  12   0.9649   0.0157    0.051
  13   0.9589   0.0183    0.066
  14   0.9524   0.0212    0.073
  15   0.9455   0.0242    0.077
  16   0.9382   0.0274    0.087
  17   0.9304   0.0308    0.101
  18   0.9222   0.0344    0.106
  19   0.9135   0.0381    0.129
  20   0.9045   0.0420    0.127
  21   0.8951   0.0460    0.147
  22   0.8853   0.0501    0.157
  23   0.8751   0.0544    0.179
  24   0.8645   0.0588    0.186
  25   0.8536   0.0633    0.207
  26   0.8423   0.0679    0.218
  27   0.8307   0.0726    0.238
  28   0.8187   0.0774    0.256
  29   0.8065   0.0822    0.271
  30   0.7939   0.0871    0.298
  31   0.7810   0.0920    0.310
  32   0.7679   0.0970    0.330
  33   0.7545   0.1019    0.356
  34   0.7409   0.1069    0.374
  35   0.7270   0.1118    0.395
  36   0.7129   0.1167    0.420
  37   0.6986   0.1216    0.446
  38   0.6841   0.1264    0.461
  39   0.6694   0.1311    0.491
  40   0.6545   0.1357    0.513
  41   0.6395   0.1403    0.542
  42   0.6243   0.1447    0.560
  43   0.6091   0.1490    0.590
  44   0.5937   0.1532    0.620
  45   0.5782   0.1572    0.640
  46   0.5627   0.1610    0.671
  47   0.5471   0.1647    0.698
  48   0.5314   0.1682    0.722
  49   0.5157   0.1714    0.754
  50   0.5000   0.1745    0.782
  51   0.4843   0.1774    0.813
  52   0.4686   0.1800    0.838
  53   0.4529   0.1823    0.874
  54   0.4373   0.1845    0.901
  55   0.4218   0.1863    0.936
  56   0.4063   0.1879    0.965
  57   0.3909   0.1892    0.994
  58   0.3757   0.1903    1.035
  59   0.3605   0.1911    1.067
  60   0.3455   0.1915    1.103
  61   0.3306   0.1917    1.138
  62   0.3159   0.1916    1.177
  63   0.3014   0.1912    1.209
  64   0.2871   0.1905    1.260
  65   0.2730   0.1895    1.295
  66   0.2591   0.1882    1.334
  67   0.2455   0.1866    1.387
  68   0.2321   0.1847    1.429
  69   0.2190   0.1825    1.479
  70   0.2061   0.1800    1.527
  71   0.1935   0.1773    1.577
  72   0.1813   0.1742    1.638
  73   0.1693   0.1708    1.689
  74   0.1577   0.1672    1.751
  75   0.1464   0.1633    1.817
  76   0.1355   0.1591    1.873
  77   0.1249   0.1546    1.947
  78   0.1147   0.1499    2.021
  79   0.1049   0.1449    2.088
  80   0.0955   0.1397    2.168
  81   0.0865   0.1343    2.244
  82   0.0778   0.1286    2.333
  83   0.0696   0.1227    2.416
  84   0.0618   0.1167    2.501
  85   0.0545   0.1104    2.591
  86   0.0476   0.1039    2.691
  87   0.0411   0.0972    2.769
  88   0.0351   0.0904    2.877
  89   0.0296   0.0834    2.957
  90   0.0245   0.0763    3.052
  91   0.0199   0.0691    3.144
  92   0.0157   0.0617    3.232
  93   0.0120   0.0542    3.294
  94   0.0089   0.0466    3.385
  95   0.0062   0.0390    3.441
  96   0.0039   0.0313    3.491
  97   0.0022   0.0235    3.547
  98   0.0010   0.0157    3.570
  99   0.0002   0.0079    3.592
 100   0.0000   0.0000    7.485
 101   0.0002  -0.0025   11.072
 102   0.0010  -0.0049   10.341
 103   0.0022  -0.0073    9.332
 104   0.0039  -0.0097    8.238
 105   0.0062  -0.0119    7.196
 106   0.0089  -0.0140    6.292
 107   0.0120  -0.0160    5.482
 108   0.0157  -0.0178    4.826
 109   0.0199  -0.0195    4.269
 110   0.0245  -0.0209    3.786
 111   0.0296  -0.0221    3.383
 112   0.0351  -0.0231    3.035
 113   0.0411  -0.0239    2.738
 114   0.0476  -0.0244    2.462
 115   0.0545  -0.0246    2.247
 116   0.0618  -0.0245    2.017
 117   0.0696  -0.0242    1.824
 118   0.0778  -0.0236    1.662
 119   0.0865  -0.0227    1.489
 120   0.0955  -0.0215    1.349
 121   0.1049  -0.0201    1.204
 122   0.1147  -0.0184    1.073
 123   0.1249  -0.0164    0.952
 124   0.1355  -0.0142    0.840
 125   0.1464  -0.0117    0.727
 126   0.1577  -0.0090    0.616
 127   0.1693  -0.0060    0.526
 128   0.1813  -0.0029    0.423
 129   0.1935   0.0004    0.337
 130   0.2061   0.0039    0.244
 131   0.2190   0.0075    0.158
 132   0.2321   0.0112    0.085
 133   0.2455   0.0150   -0.007
 134   0.2591   0.0189   -0.076
 135   0.2730   0.0228   -0.151
 136   0.2871   0.0268   -0.224
 137   0.3014   0.0307   -0.294
 138   0.3159   0.0347   -0.357
 139   0.3306   0.0386   -0.428
 140   0.3455   0.0424   -0.483
 141   0.3605   0.0461   -0.544
 142   0.3757   0.0497   -0.601
 143   0.3909   0.0531   -0.652
 144   0.4063   0.0564   -0.706
 145   0.4218   0.0595   -0.750
 146   0.4373   0.0625   -0.792
 147   0.4529   0.0652   -0.837
 148   0.4686   0.0676   -0.867
 149   0.4843   0.0699   -0.900
 150   0.5000   0.0719   -0.928
 151   0.5157   0.0736   -0.952
 152   0.5314   0.0751   -0.970
 153   0.5471   0.0763   -0.988
 154   0.5627   0.0772   -0.993
 155   0.5782   0.0779   -1.002
 156   0.5937   0.0783   -1.004
 157   0.6091   0.0784   -0.999
 158   0.6243   0.0782   -0.991
 159   0.6395   0.0778   -0.983
 160   0.6545   0.0771   -0.968
 161   0.6694   0.0762   -0.948
 162   0.6841   0.0750   -0.926
 163   0.6986   0.0737   -0.909
 164   0.7129   0.0721   -0.875
 165   0.7270   0.0703   -0.848
 166   0.7409   0.0683   -0.820
 167   0.7545   0.0662   -0.785
 168   0.7679   0.0639   -0.748
 169   0.7810   0.0615   -0.723
 170   0.7939   0.0590   -0.679
 171   0.8065   0.0564   -0.645
 172   0.8187   0.0537   -0.613
 173   0.8307   0.0509   -0.577
 174   0.8423   0.0481   -0.537
 175   0.8536   0.0452   -0.501
 176   0.8645   0.0424   -0.471
 177   0.8751   0.0395   -0.436
 178   0.8853   0.0367   -0.405
 179   0.8951   0.0338   -0.375
 180   0.9045   0.0311   -0.343
 181   0.9135   0.0284   -0.307
 182   0.9222   0.0257   -0.290
 183   0.9304   0.0232   -0.257
 184   0.9382   0.0207   -0.238
 185   0.9455   0.0184   -0.209
 186   0.9524   0.0161   -0.189
 187   0.9589   0.0140   -0.168
 188   0.9649   0.0120   -0.152
 189   0.9704   0.0101   -0.135
 190   0.9755   0.0084   -0.103
 191   0.9801   0.0068   -0.110
 192   0.9843   0.0054   -0.092
 193   0.9880   0.0042   -0.062
 194   0.9911   0.0031   -0.066
 195   0.9938   0.0021   -0.057
 196   0.9961   0.0014   -0.021
 197   0.9978   0.0008   -0.039
 198   0.9990   0.0003   -0.023
 199   0.9998   0.0001    0.024

 Maximum panel corner angle = 11.072   at  i,x,y  = 101   0.0002  -0.0025

 Enter corner angle criterion for refinement (deg):   5.536
 Enter type of spline parameter (1=uniform, 2=arclength):   1
 Enter refinement x limits:  -0.10000   1.10000
 Number of points added:           14
 Max thickness =     0.177086  at x =   0.181
 Max camber    =     0.123875  at x =   0.469

 Maximum panel corner angle =  7.881   at  i,x,y  = 103   0.0001  -0.0020

.GDES   c>  
 Buffer airfoil is not identical to current airfoil

 XFOIL   c>  
 Blunt trailing edge.  Gap =  0.00027

 Paneling parameters used...
   Number of panel nodes       160
   Panel bunching parameter    1.000
   TE/LE panel density ratio   0.150
   Refined-area/LE panel density ratio    0.200
   Top    side refined area x/c limits  1.000 1.000
   Bottom side refined area x/c limits  1.000 1.000

 XFOIL   c>  
.OPERi   c>   Current iteration limit:          20

Enter new iteration limit   i>  
Enter new iteration limit   i>  
Enter new iteration limit   i>  
.OPERi   c>  
 M  =    0.0000
 Re =  0.3000E+06

.OPERv   c>  
 Sonic Cp =    -66.86      Sonic Q/Qinf =     9.138


.OPERv   c>  
 Polar  1 newly created for accumulation
 Airfoil archived with polar: 000123                                          

Enter  polar save filename  OR  <return> for no file   s>  
 New polar save file available

Enter  polar dump filename  OR  <return> for no file   s>  
 Polar dump file will NOT be written

 Polar accumulation enabled

.OPERva   c>   Calculating unit vorticity distributions ...
 Calculating wake trajectory ...
 Calculating source influence matrix ...

 Solving BL system ...

 Initializing BL ...
    side            1  ...
 MRCHUE: Inverse mode at  53     Hk =   4.298
 MRCHUE: Inverse mode at  54     Hk =   5.188
 MRCHUE: Inverse mode at  55     Hk =   6.064
 MRCHUE: Inverse mode at  56     Hk =   6.933
 MRCHUE: Inverse mode at  57     Hk =   7.798
 MRCHUE: Inverse mode at  58     Hk =   8.661
 MRCHUE: Inverse mode at  59     Hk =   6.739
 MRCHUE: Inverse mode at  60     Hk =   3.697
 MRCHUE: Inverse mode at  61     Hk =   2.500
 MRCHUE: Inverse mode at  85     Hk =   2.500
 MRCHUE: Inverse mode at  86     Hk =   2.500
    side            2  ...
 MRCHUE: Inverse mode at  30     Hk =   3.979
 MRCHUE: Inverse mode at  31     Hk =   4.717
 MRCHUE: Inverse mode at  32     Hk =   5.480
 MRCHUE: Inverse mode at  33     Hk =   6.275
 MRCHUE: Inverse mode at  34     Hk =   7.105
 MRCHUE: Inverse mode at  35     Hk =   7.973
 MRCHUE: Inverse mode at  36     Hk =   8.874
 MRCHUE: Inverse mode at  37     Hk =   9.794
 MRCHUE: Inverse mode at  38     Hk =   5.303
 MRCHUE: Inverse mode at  39     Hk =   3.412

 Side 1  free  transition at x/c =  0.4530   59
 Side 2  free  transition at x/c =  0.2547   38

   1   rms: 0.2024E+00   max: -.8792E+00   D at   39  2   RLX: 0.569
       a =  2.000      CL =  1.7041
      Cm = -0.2903     CD =  0.01835   =>   CDf =  0.00830    CDp =  0.01005

 MRCHDU: Convergence failed at  38  side 2    Res =  0.3865E+01
 MRCHDU: Convergence failed at  39  side 2    Res =  0.1177E+02
 MRCHDU: Convergence failed at  40  side 2    Res =  0.6058E+02
 MRCHDU: Convergence failed at  41  side 2    Res =  0.4669E+02
 MRCHDU: Convergence failed at  42  side 2    Res =  0.6063E+03
 MRCHDU: Convergence failed at  43  side 2    Res =  0.5613E+02
 MRCHDU: Convergence failed at  44  side 2    Res =  0.2224E+02
 MRCHDU: Convergence failed at  45  side 2    Res =  0.4635E+02
 MRCHDU: Convergence failed at  46  side 2    Res =  0.3422E+02
 MRCHDU: Convergence failed at  47  side 2    Res =  0.2915E+02
 MRCHDU: Convergence failed at  48  side 2    Res =  0.3671E+02
 MRCHDU: Convergence failed at  49  side 2    Res =  0.3479E+02
 MRCHDU: Convergence failed at  50  side 2    Res =  0.3406E+02
 MRCHDU: Convergence failed at  51  side 2    Res =  0.1896E+03
 MRCHDU: Convergence failed at  52  side 2    Res =  0.1069E+04
 MRCHDU: Convergence failed at  53  side 2    Res =  0.8439E+02
 MRCHDU: Convergence failed at  54  side 2    Res =  0.4114E+02
 MRCHDU: Convergence failed at  55  side 2    Res =  0.3611E+02
 MRCHDU: Convergence failed at  56  side 2    Res =  0.3834E+02
 MRCHDU: Convergence failed at  57  side 2    Res =  0.2449E+02
 MRCHDU: Convergence failed at  58  side 2    Res =  0.4122E+02
 MRCHDU: Convergence failed at  59  side 2    Res =  0.6122E+02
 MRCHDU: Convergence failed at  60  side 2    Res =  0.1235E+03
 MRCHDU: Convergence failed at  61  side 2    Res =  0.1907E+04
 MRCHDU: Convergence failed at  62  side 2    Res =  0.5175E+02
 MRCHDU: Convergence failed at  63  side 2    Res =  0.6501E+02
 MRCHDU: Convergence failed at  64  side 2    Res =  0.6931E+02
 MRCHDU: Convergence failed at  65  side 2    Res =  0.1035E+03
 MRCHDU: Convergence failed at  66  side 2    Res =  0.3228E+03
 MRCHDU: Convergence failed at  67  side 2    Res =  0.1101E+04
 MRCHDU: Convergence failed at  68  side 2    Res =  0.1364E+03
 MRCHDU: Convergence failed at  69  side 2    Res =  0.8136E+01
 MRCHDU: Convergence failed at  70  side 2    Res =  0.8005E+01
 MRCHDU: Convergence failed at  71  side 2    Res =  0.6301E+01
 MRCHDU: Convergence failed at  72  side 2    Res =  0.4242E+01
 MRCHDU: Convergence failed at  73  side 2    Res =  0.8514E+01
 MRCHDU: Convergence failed at  74  side 2    Res =  0.1336E+02
 Side 1  free  transition at x/c =  0.4698   60
 Side 2  free  transition at x/c =  0.2490   37

   2   rms: 0.6511E+00   max: 0.4673E+01   T at   37  2   RLX: 0.237
       a =  2.000      CL =  1.4806
      Cm = -0.2183     CD =  0.01686   =>   CDf =  0.00650    CDp =  0.01037

 Side 1  free  transition at x/c =  0.4742   60
 Side 2  free  transition at x/c =  0.2262   36

   3   rms: 0.2795E+00   max: -.1626E+01   D at   73  2   RLX: 0.308
       a =  2.000      CL =  1.6190
      Cm = -0.2654     CD =  0.02413   =>   CDf =  0.00664    CDp =  0.01750

 MRCHDU: Convergence failed at  73  side 2    Res =  0.3837E-02
 MRCHDU: Convergence failed at  76  side 2    Res =  0.7554E-04
 Side 1  free  transition at x/c =  0.4777   60
 Side 2  free  transition at x/c =  0.2303   36

   4   rms: 0.2964E+00   max: -.1552E+01   D at   73  2   RLX: 0.322
       a =  2.000      CL =  1.6696
      Cm = -0.2809     CD =  0.02298   =>   CDf =  0.00670    CDp =  0.01628

 MRCHDU: Convergence failed at  54  side 2    Res =  0.2507E-01
 Side 1  free  transition at x/c =  0.4802   60
 Side 2  free  transition at x/c =  0.2424   37

   5   rms: 0.3293E+00   max: -.1653E+01   D at   54  2   RLX: 0.302
       a =  2.000      CL =  1.7096
      Cm = -0.2932     CD =  0.02098   =>   CDf =  0.00681    CDp =  0.01417

 MRCHDU: Convergence failed at  54  side 2    Res =  0.9927E-01
 Side 1  free  transition at x/c =  0.4816   60
 Side 2  free  transition at x/c =  0.2491   37

   6   rms: 0.5453E+00   max: -.3430E+01   D at   54  2   RLX: 0.146
       a =  2.000      CL =  1.7137
      Cm = -0.2943     CD =  0.02014   =>   CDf =  0.00697    CDp =  0.01316

 MRCHDU: Convergence failed at  54  side 2    Res =  0.1608E+00
 MRCHDU: Convergence failed at  55  side 2    Res =  0.3449E+00
 MRCHDU: Convergence failed at  56  side 2    Res =  0.3496E-01
 MRCHDU: Convergence failed at  58  side 2    Res =  0.4882E+01
 MRCHDU: Convergence failed at  59  side 2    Res =  0.3319E+01
 MRCHDU: Convergence failed at  60  side 2    Res =  0.2313E+01
 MRCHDU: Convergence failed at  61  side 2    Res =  0.1688E+01
 MRCHDU: Convergence failed at  62  side 2    Res =  0.1456E+01
 MRCHDU: Convergence failed at  63  side 2    Res =  0.1223E+01
 MRCHDU: Convergence failed at  64  side 2    Res =  0.1234E+01
 MRCHDU: Convergence failed at  65  side 2    Res =  0.2398E+01
 MRCHDU: Convergence failed at  66  side 2    Res =  0.5524E+01
 Side 1  free  transition at x/c =  0.4822   61
 Side 2  free  transition at x/c =  0.2556   38

   7   rms: 0.3824E+00   max: -.2030E+01   D at   49  2   RLX: 0.246
       a =  2.000      CL =  1.7048
      Cm = -0.2924     CD =  0.01943   =>   CDf =  0.00773    CDp =  0.01170

 MRCHDU: Convergence failed at  56  side 2    Res =  0.2393E-01
 Side 1  free  transition at x/c =  0.4842   61
 Side 2  free  transition at x/c =  0.2565   38

   8   rms: 0.2862E+00   max: -.1682E+01   D at   50  2   RLX: 0.297
       a =  2.000      CL =  1.6898
      Cm = -0.2892     CD =  0.01917   =>   CDf =  0.00765    CDp =  0.01151

 MRCHDU: Convergence failed at  56  side 2    Res =  0.2767E-01
 Side 1  free  transition at x/c =  0.4858   61
 Side 2  free  transition at x/c =  0.2543   38

   9   rms: 0.2210E+00   max: -.1262E+01   D at   68  2   RLX: 0.396
       a =  2.000      CL =  1.6757
      Cm = -0.2859     CD =  0.01923   =>   CDf =  0.00773    CDp =  0.01150

 MRCHDU: Convergence failed at  38  side 2    Res =  0.2325E+01
 MRCHDU: Convergence failed at  39  side 2    Res =  0.5695E+01
 MRCHDU: Convergence failed at  40  side 2    Res =  0.3039E+01
 MRCHDU: Convergence failed at  41  side 2    Res =  0.5013E+01
 MRCHDU: Convergence failed at  42  side 2    Res =  0.7200E+01
 MRCHDU: Convergence failed at  43  side 2    Res =  0.8538E+01
 MRCHDU: Convergence failed at  44  side 2    Res =  0.8404E+01
 MRCHDU: Convergence failed at  45  side 2    Res =  0.6171E+02
 MRCHDU: Convergence failed at  46  side 2    Res =  0.2573E+02
 MRCHDU: Convergence failed at  47  side 2    Res =  0.4758E+02
 MRCHDU: Convergence failed at  48  side 2    Res =  0.5986E+02
 MRCHDU: Convergence failed at  49  side 2    Res =  0.1516E+03
 MRCHDU: Convergence failed at  50  side 2    Res =  0.3978E+02
 MRCHDU: Convergence failed at  51  side 2    Res =  0.6606E+02
 MRCHDU: Convergence failed at  52  side 2    Res =  0.1854E+02
 MRCHDU: Convergence failed at  53  side 2    Res =  0.2722E+02
 MRCHDU: Convergence failed at  54  side 2    Res =  0.2832E+02
 MRCHDU: Convergence failed at  55  side 2    Res =  0.6669E+02
 MRCHDU: Convergence failed at  56  side 2    Res =  0.1303E+02
 MRCHDU: Convergence failed at  57  side 2    Res =  0.7579E+01
 MRCHDU: Convergence failed at  58  side 2    Res =  0.1690E+03
 MRCHDU: Convergence failed at  59  side 2    Res =  0.7654E+02
 MRCHDU: Convergence failed at  60  side 2    Res =  0.6594E+02
 MRCHDU: Convergence failed at  61  side 2    Res =  0.6890E+02
 MRCHDU: Convergence failed at  62  side 2    Res =  0.7873E+02
 MRCHDU: Convergence failed at  63  side 2    Res =  0.1436E+03
 MRCHDU: Convergence failed at  64  side 2    Res =  0.3267E+03
 MRCHDU: Convergence failed at  65  side 2    Res =  0.3812E+02
 MRCHDU: Convergence failed at  66  side 2    Res =  0.5654E+01
 MRCHDU: Convergence failed at  67  side 2    Res =  0.7748E+02
 MRCHDU: Convergence failed at  68  side 2    Res =  0.1538E+02
 MRCHDU: Convergence failed at  69  side 2    Res =  0.1445E+02
 MRCHDU: Convergence failed at  70  side 2    Res =  0.1545E+02
 MRCHDU: Convergence failed at  71  side 2    Res =  0.1699E+02
 MRCHDU: Convergence failed at  72  side 2    Res =  0.1879E+02
 Side 1  free  transition at x/c =  0.4872   61
 Side 2  free  transition at x/c =  0.2491   37

  10   rms: 0.6456E+00   max: 0.4276E+01   T at   37  2   RLX: 0.285
       a =  2.000      CL =  1.4620
      Cm = -0.2159     CD =  0.01859   =>   CDf =  0.00656    CDp =  0.01204

 MRCHDU: Convergence failed at  38  side 2    Res =  0.3621E+02
 MRCHDU: Convergence failed at  59  side 2    Res =  0.1845E+00
 MRCHDU: Convergence failed at  60  side 2    Res =  0.2617E+00
 MRCHDU: Convergence failed at  61  side 2    Res =  0.3225E+00
 MRCHDU: Convergence failed at  62  side 2    Res =  0.3733E+00
 MRCHDU: Convergence failed at  63  side 2    Res =  0.4200E+00
 MRCHDU: Convergence failed at  64  side 2    Res =  0.4659E+00
 MRCHDU: Convergence failed at  65  side 2    Res =  0.5053E+00
 MRCHDU: Convergence failed at  66  side 2    Res =  0.5432E+00
 MRCHDU: Convergence failed at  67  side 2    Res =  0.5802E+00
 MRCHDU: Convergence failed at  68  side 2    Res =  0.6170E+00
 MRCHDU: Convergence failed at  69  side 2    Res =  0.6534E+00
 MRCHDU: Convergence failed at  70  side 2    Res =  0.6891E+00
[...]
 Side 2  free  transition at x/c =  0.3616   39

   2   rms: 0.1508E+00   max: -.1142E+01   T at   39  2   RLX: 0.438
       a =  7.000      CL =  2.0092
      Cm = -0.2551     CD =  0.02903   =>   CDf =  0.00781    CDp =  0.02123

 Side 1  free  transition at x/c =  0.3989   60
 Side 2  free  transition at x/c =  0.3717   39

   3   rms: 0.6044E-01   max: -.3599E+00   D at   39  2
       a =  7.000      CL =  2.0219
      Cm = -0.2535     CD =  0.02969   =>   CDf =  0.00766    CDp =  0.02203

 Side 1  free  transition at x/c =  0.3936   60
 Side 2  free  transition at x/c =  0.3815   40

   4   rms: 0.8087E-02   max: -.6727E-01   D at   39  2
       a =  7.000      CL =  2.0231
      Cm = -0.2537     CD =  0.02965   =>   CDf =  0.00733    CDp =  0.02232

 Side 1  free  transition at x/c =  0.3940   61
 Side 2  free  transition at x/c =  0.3813   39

   5   rms: 0.5613E-02   max: 0.9942E-01   D at    2  1
       a =  7.000      CL =  2.0234
      Cm = -0.2537     CD =  0.02964   =>   CDf =  0.00763    CDp =  0.02202

 Side 1  free  transition at x/c =  0.3940   61
 Side 2  free  transition at x/c =  0.3813   39

   6   rms: 0.1913E-04   max: 0.2594E-03   D at    2  1
       a =  7.000      CL =  2.0234
      Cm = -0.2537     CD =  0.02964   =>   CDf =  0.00763    CDp =  0.02202

 Point added to stored polar  1
 Point written to save file  000123M0.1.log                                  
 Dump file unspecified or not available
 Calculating wake trajectory ...
 Calculating source influence matrix ...

 Solving BL system ...

 Side 1  free  transition at x/c =  0.3940   61
 Side 2  free  transition at x/c =  0.3813   39

   1   rms: 0.1658E+00   max: -.1146E+01   T at   39  2   RLX: 0.436
       a =  8.000      CL =  2.0517
      Cm = -0.2518     CD =  0.03113   =>   CDf =  0.00765    CDp =  0.02348

 Side 1  free  transition at x/c =  0.3864   60
 Side 2  free  transition at x/c =  0.3978   39

   2   rms: 0.8108E-01   max: -.5500E+00   T at   39  2   RLX: 0.909
       a =  8.000      CL =  2.0646
      Cm = -0.2469     CD =  0.03417   =>   CDf =  0.00772    CDp =  0.02646

 MRCHDU: Convergence failed at  41  side 2    Res =  0.2707E+01
 MRCHDU: Convergence failed at  42  side 2    Res =  0.4149E+02
 MRCHDU: Convergence failed at  43  side 2    Res =  0.5107E+01
 MRCHDU: Convergence failed at  44  side 2    Res =  0.4300E+01
 MRCHDU: Convergence failed at  45  side 2    Res =  0.4430E+01
 MRCHDU: Convergence failed at  46  side 2    Res =  0.4584E+01
 MRCHDU: Convergence failed at  47  side 2    Res =  0.4739E+01
 MRCHDU: Convergence failed at  48  side 2    Res =  0.4815E+01
 MRCHDU: Convergence failed at  49  side 2    Res =  0.4801E+01
 MRCHDU: Convergence failed at  50  side 2    Res =  0.4700E+01
 MRCHDU: Convergence failed at  51  side 2    Res =  0.4530E+01
 MRCHDU: Convergence failed at  52  side 2    Res =  0.4327E+01
 MRCHDU: Convergence failed at  53  side 2    Res =  0.4217E+01
 MRCHDU: Convergence failed at  54  side 2    Res =  0.4064E+01
 MRCHDU: Convergence failed at  55  side 2    Res =  0.4006E+01
 MRCHDU: Convergence failed at  56  side 2    Res =  0.5726E+01
 MRCHDU: Convergence failed at  57  side 2    Res =  0.8138E+01
 MRCHDU: Convergence failed at  58  side 2    Res =  0.2902E+02
 Side 1  free  transition at x/c =  0.3768   60
 Side 2  free  transition at x/c =  0.4206   40

   3   rms: 0.1189E+00   max: 0.8511E+00   T at   40  2   RLX: 0.724
       a =  8.000      CL =  2.0663
      Cm = -0.2452     CD =  0.03385   =>   CDf =  0.00693    CDp =  0.02692

 Side 1  free  transition at x/c =  0.3764   60
 Side 2  free  transition at x/c =  0.3987   39

   4   rms: 0.8401E-01   max: -.8883E+00   D at   43  2   RLX: 0.563
       a =  8.000      CL =  2.0725
      Cm = -0.2468     CD =  0.03434   =>   CDf =  0.00767    CDp =  0.02667

 Side 1  free  transition at x/c =  0.3764   60
 Side 2  free  transition at x/c =  0.4174   40

   5   rms: 0.4542E-01   max: -.6616E+00   D at   43  2   RLX: 0.756
       a =  8.000      CL =  2.0751
      Cm = -0.2475     CD =  0.03396   =>   CDf =  0.00752    CDp =  0.02644

 Side 1  free  transition at x/c =  0.3763   60
 Side 2  free  transition at x/c =  0.4206   40

   6   rms: 0.1878E-01   max: -.3698E+00   D at   43  2
       a =  8.000      CL =  2.0763
      Cm = -0.2479     CD =  0.03393   =>   CDf =  0.00749    CDp =  0.02644

 Side 1  free  transition at x/c =  0.3763   60
 Side 2  free  transition at x/c =  0.4193   40

   7   rms: 0.3992E-02   max: -.8922E-01   D at   43  2
       a =  8.000      CL =  2.0763
      Cm = -0.2479     CD =  0.03393   =>   CDf =  0.00748    CDp =  0.02645

 Side 1  free  transition at x/c =  0.3763   60
 Side 2  free  transition at x/c =  0.4188   40

   8   rms: 0.2222E-03   max: -.4858E-02   D at   43  2
       a =  8.000      CL =  2.0763
      Cm = -0.2479     CD =  0.03393   =>   CDf =  0.00748    CDp =  0.02645

 Side 1  free  transition at x/c =  0.3763   60
 Side 2  free  transition at x/c =  0.4188   40

   9   rms: 0.2334E-05   max: -.2236E-04   D at    4  2
       a =  8.000      CL =  2.0763
      Cm = -0.2479     CD =  0.03393   =>   CDf =  0.00748    CDp =  0.02645

 Point added to stored polar  1
 Point written to save file  000123M0.1.log                                  
 Dump file unspecified or not available
 Calculating wake trajectory ...
 Calculating source influence matrix ...

 Solving BL system ...

 Side 1  free  transition at x/c =  0.3763   60
 Side 2  free  transition at x/c =  0.4188   40

   1   rms: 0.1302E+00   max: -.8868E+00   T at   40  2   RLX: 0.564
       a =  9.000      CL =  2.1045
      Cm = -0.2446     CD =  0.03662   =>   CDf =  0.00716    CDp =  0.02946

 MRCHDU: Convergence failed at  41  side 2    Res =  0.5412E+01
 MRCHDU: Convergence failed at  42  side 2    Res =  0.4557E+01
 MRCHDU: Convergence failed at  43  side 2    Res =  0.6038E+01
 MRCHDU: Convergence failed at  44  side 2    Res =  0.1582E+02
 MRCHDU: Convergence failed at  45  side 2    Res =  0.7431E+02
 MRCHDU: Convergence failed at  46  side 2    Res =  0.1130E+03
 MRCHDU: Convergence failed at  47  side 2    Res =  0.5623E+02
 MRCHDU: Convergence failed at  48  side 2    Res =  0.4986E+02
 MRCHDU: Convergence failed at  49  side 2    Res =  0.6300E+02
 MRCHDU: Convergence failed at  50  side 2    Res =  0.1653E+03
 MRCHDU: Convergence failed at  51  side 2    Res =  0.9755E+02
 MRCHDU: Convergence failed at  52  side 2    Res =  0.2778E+02
 MRCHDU: Convergence failed at  53  side 2    Res =  0.1322E+02
 MRCHDU: Convergence failed at  54  side 2    Res =  0.7355E+01
 MRCHDU: Convergence failed at  55  side 2    Res =  0.4040E+01
 Side 1  free  transition at x/c =  0.3674   60
 Side 2  free  transition at x/c =  0.4497   41

   2   rms: 0.1860E+00   max: -.1082E+01   D at   53  2   RLX: 0.462
       a =  9.000      CL =  2.0999
      Cm = -0.2395     CD =  0.03801   =>   CDf =  0.00698    CDp =  0.03103

 Side 1  free  transition at x/c =  0.3637   60
 Side 2  free  transition at x/c =  0.4587   41

   3   rms: 0.5349E-01   max: -.6180E+00   D at   43  2   RLX: 0.809
       a =  9.000      CL =  2.1166
      Cm = -0.2415     CD =  0.03913   =>   CDf =  0.00749    CDp =  0.03164

 Side 1  free  transition at x/c =  0.3599   60
 Side 2  free  transition at x/c =  0.4624   42

   4   rms: 0.1567E-01   max: -.2061E+00   D at   43  2
       a =  9.000      CL =  2.1211
      Cm = -0.2420     CD =  0.03919   =>   CDf =  0.00734    CDp =  0.03185

 Side 1  free  transition at x/c =  0.3593   60
 Side 2  free  transition at x/c =  0.4632   42

   5   rms: 0.9911E-03   max: -.1475E-01   D at   43  2
       a =  9.000      CL =  2.1212
      Cm = -0.2420     CD =  0.03917   =>   CDf =  0.00729    CDp =  0.03188

 Side 1  free  transition at x/c =  0.3593   60
 Side 2  free  transition at x/c =  0.4629   42

   6   rms: 0.1691E-04   max: -.2523E-03   D at   44  2
       a =  9.000      CL =  2.1212
      Cm = -0.2420     CD =  0.03917   =>   CDf =  0.00730    CDp =  0.03188

 Point added to stored polar  1
 Point written to save file  000123M0.1.log                                  
 Dump file unspecified or not available
 Calculating wake trajectory ...
 Calculating source influence matrix ...

 Solving BL system ...

 Side 1  free  transition at x/c =  0.3593   60
 Side 2  free  transition at x/c =  0.4629   42

   1   rms: 0.1423E+00   max: -.9657E+00   T at   42  2   RLX: 0.518
       a = 10.000      CL =  2.1405
      Cm = -0.2391     CD =  0.04241   =>   CDf =  0.00696    CDp =  0.03544

 Side 1  free  transition at x/c =  0.3508   60
 Side 2  free  transition at x/c =  0.4830   42

   2   rms: 0.1301E+00   max: -.1180E+01   T at   42  2   RLX: 0.424
       a = 10.000      CL =  2.1449
      Cm = -0.2373     CD =  0.04430   =>   CDf =  0.00740    CDp =  0.03689

 Side 1  free  transition at x/c =  0.3477   60
 Side 2  free  transition at x/c =  0.4957   42

   3   rms: 0.6309E-01   max: -.5571E+00   T at   42  2   RLX: 0.897
       a = 10.000      CL =  2.1555
      Cm = -0.2364     CD =  0.04557   =>   CDf =  0.00724    CDp =  0.03832

 MRCHDU: Convergence failed at  44  side 2    Res =  0.6552E+01
 MRCHDU: Convergence failed at  45  side 2    Res =  0.2922E+01
 MRCHDU: Convergence failed at  46  side 2    Res =  0.1169E+02
 MRCHDU: Convergence failed at  47  side 2    Res =  0.7369E+02
 MRCHDU: Convergence failed at  48  side 2    Res =  0.2668E+02
 MRCHDU: Convergence failed at  49  side 2    Res =  0.7717E+02
 Side 1  free  transition at x/c =  0.3430   60
 Side 2  free  transition at x/c =  0.5267   44

   4   rms: 0.8037E-01   max: -.7298E+00   D at   49  2   RLX: 0.685
       a = 10.000      CL =  2.1557
      Cm = -0.2357     CD =  0.04538   =>   CDf =  0.00689    CDp =  0.03849

 Side 1  free  transition at x/c =  0.3429   60
 Side 2  free  transition at x/c =  0.5267   44

   5   rms: 0.1605E-01   max: -.2865E+00   D at   45  2
       a = 10.000      CL =  2.1579
      Cm = -0.2363     CD =  0.04543   =>   CDf =  0.00707    CDp =  0.03836

 Side 1  free  transition at x/c =  0.3428   60
 Side 2  free  transition at x/c =  0.5224   44

   6   rms: 0.1359E-02   max: -.2502E-01   D at   45  2
       a = 10.000      CL =  2.1579
      Cm = -0.2363     CD =  0.04543   =>   CDf =  0.00707    CDp =  0.03836

 Side 1  free  transition at x/c =  0.3428   60
 Side 2  free  transition at x/c =  0.5222   44

   7   rms: 0.1742E-04   max: -.3359E-03   D at   45  2
       a = 10.000      CL =  2.1579
      Cm = -0.2363     CD =  0.04543   =>   CDf =  0.00707    CDp =  0.03836

 Point added to stored polar  1
 Point written to save file  000123M0.1.log                                  
 Dump file unspecified or not available
 Calculating wake trajectory ...
 Calculating source influence matrix ...

 Solving BL system ...

 Side 1  free  transition at x/c =  0.3428   60
 Side 2  free  transition at x/c =  0.5222   44

   1   rms: 0.1492E+00   max: -.1030E+01   C at   44  2   RLX: 0.485
       a = 11.000      CL =  2.1704
      Cm = -0.2336     CD =  0.04915   =>   CDf =  0.00672    CDp =  0.04243

 Side 1  free  transition at x/c =  0.3345   61
 Side 2  free  transition at x/c =  0.5523   44

   2   rms: 0.8986E-01   max: -.8049E+00   T at   44  2   RLX: 0.621
       a = 11.000      CL =  2.1989
      Cm = -0.2322     CD =  0.04965   =>   CDf =  0.00710    CDp =  0.04254

 Side 1  free  transition at x/c =  0.3306   60
 Side 2  free  transition at x/c =  0.6107   47

   3   rms: 0.5586E-01   max: -.4600E+00   T at   47  2
       a = 11.000      CL =  2.1871
      Cm = -0.2311     CD =  0.05302   =>   CDf =  0.00703    CDp =  0.04600

 Side 1  free  transition at x/c =  0.3269   60
 Side 2 forced transition at x/c =  1.0001   68

   4   rms: 0.2833E-01   max: 0.4698E+00   D at   47  2
       a = 11.000      CL =  2.1872
      Cm = -0.2309     CD =  0.05242   =>   CDf =  0.00658    CDp =  0.04583

 Side 1  free  transition at x/c =  0.3270   60
 Side 2 forced transition at x/c =  1.0001   68

   5   rms: 0.5111E-02   max: 0.4731E-01   D at   48  2
       a = 11.000      CL =  2.1873
      Cm = -0.2309     CD =  0.05241   =>   CDf =  0.00658    CDp =  0.04583

 Side 1  free  transition at x/c =  0.3270   60
 Side 2 forced transition at x/c =  1.0001   68

   6   rms: 0.2363E-03   max: 0.1881E-02   D at   45  2
       a = 11.000      CL =  2.1873
      Cm = -0.2309     CD =  0.05241   =>   CDf =  0.00658    CDp =  0.04584

 Side 1  free  transition at x/c =  0.3270   60
 Side 2 forced transition at x/c =  1.0001   68

   7   rms: 0.5167E-05   max: 0.4397E-04   D at   83  2
       a = 11.000      CL =  2.1873
      Cm = -0.2309     CD =  0.05241   =>   CDf =  0.00658    CDp =  0.04584

 Point added to stored polar  1
 Point written to save file  000123M0.1.log                                  
 Dump file unspecified or not available
 Calculating wake trajectory ...
 Calculating source influence matrix ...

 Solving BL system ...

 Side 1  free  transition at x/c =  0.3270   60
 Side 2 forced transition at x/c =  1.0001   68

   1   rms: 0.1502E+00   max: -.4687E+00   n at   67  2   RLX: 0.614
       a = 12.000      CL =  2.2007
      Cm = -0.2280     CD =  0.05811   =>   CDf =  0.00621    CDp =  0.05190

 Side 1  free  transition at x/c =  0.3164   61
 Side 2 forced transition at x/c =  1.0001   67

   2   rms: 0.5611E-01   max: 0.6035E-01   D at   80  2
       a = 12.000      CL =  2.2442
      Cm = -0.2269     CD =  0.05696   =>   CDf =  0.00671    CDp =  0.05025

 Side 1  free  transition at x/c =  0.3118   60
 Side 2 forced transition at x/c =  1.0001   67

   3   rms: 0.3977E-01   max: 0.2147E+00   D at   81  1
       a = 12.000      CL =  2.2097
      Cm = -0.2260     CD =  0.06132   =>   CDf =  0.00667    CDp =  0.05465

 Side 1  free  transition at x/c =  0.3116   60
 Side 2 forced transition at x/c =  1.0001   67

   4   rms: 0.2434E-02   max: 0.4814E-01   D at   80  1
       a = 12.000      CL =  2.2101
      Cm = -0.2260     CD =  0.06100   =>   CDf =  0.00650    CDp =  0.05450

 Side 1  free  transition at x/c =  0.3115   60
 Side 2 forced transition at x/c =  1.0001   67

   5   rms: 0.1383E-03   max: -.7233E-03   D at   80  1
       a = 12.000      CL =  2.2103
      Cm = -0.2260     CD =  0.06099   =>   CDf =  0.00650    CDp =  0.05449

 Side 1  free  transition at x/c =  0.3115   60
 Side 2 forced transition at x/c =  1.0001   67

   6   rms: 0.7103E-05   max: 0.4122E-04   C at   67  2
       a = 12.000      CL =  2.2103
      Cm = -0.2260     CD =  0.06099   =>   CDf =  0.00650    CDp =  0.05449

 Point added to stored polar  1
 Point written to save file  000123M0.1.log                                  
 Dump file unspecified or not available
 Calculating wake trajectory ...
 Calculating source influence matrix ...

 Solving BL system ...

 Side 1  free  transition at x/c =  0.3115   60
 Side 2 forced transition at x/c =  1.0001   67

   1   rms: 0.1174E+00   max: 0.4355E+00   D at   78  1   RLX: 0.541
       a = 13.000      CL =  2.2139
      Cm = -0.2237     CD =  0.06743   =>   CDf =  0.00612    CDp =  0.06131

 Side 1  free  transition at x/c =  0.3025   61
 Side 2 forced transition at x/c =  1.0001   66

   2   rms: 0.5544E-01   max: 0.3352E+00   D at    2  1
       a = 13.000      CL =  2.2376
      Cm = -0.2220     CD =  0.06938   =>   CDf =  0.00646    CDp =  0.06292

 Side 1  free  transition at x/c =  0.2976   60
 Side 2 forced transition at x/c =  1.0001   66

   3   rms: 0.1001E-01   max: -.6145E-01   C at   60  1
       a = 13.000      CL =  2.2289
      Cm = -0.2218     CD =  0.07043   =>   CDf =  0.00645    CDp =  0.06398

 Side 1  free  transition at x/c =  0.2966   60
 Side 2 forced transition at x/c =  1.0001   66

   4   rms: 0.8856E-03   max: -.5966E-02   D at   80  1
       a = 13.000      CL =  2.2297
      Cm = -0.2218     CD =  0.07026 Got result {'DD': 0.01898, 'Dmin': 0.02027, 'LL': -1.6242}
Completed successfully in 2.09 seconds. [{'DD': 0.01898, 'Dmin': 0.02027, 'LL': -1.6242}]
  =>   CDf =  0.00639    CDp =  0.06387

 Side 1  free  transition at x/c =  0.2966   60
 Side 2 forced transition at x/c =  1.0001   66

   5   rms: 0.5983E-04   max: -.4012E-03   D at   80  2
       a = 13.000      CL =  2.2297
      Cm = -0.2218     CD =  0.07027   =>   CDf =  0.00639    CDp =  0.06388

 Point added to stored polar  1
 Point written to save file  000123M0.1.log                                  
 Dump file unspecified or not available
 Calculating wake trajectory ...
 Calculating source influence matrix ...

 Solving BL system ...

 Side 1  free  transition at x/c =  0.2966   60
 Side 2 forced transition at x/c =  1.0001   66

   1   rms: 0.1208E+00   max: 0.5632E+00   D at   77  1   RLX: 0.477
       a = 14.000      CL =  2.2193
      Cm = -0.2201     CD =  0.07826   =>   CDf =  0.00642    CDp =  0.07184

 Side 1  free  transition at x/c =  0.2882   60
 Side 2 forced transition at x/c =  1.0001   66

   2   rms: 0.5514E-01   max: 0.1696E+00   D at   78  1
       a = 14.000      CL =  2.2319
      Cm = -0.2186     CD =  0.08272   =>   CDf =  0.00582    CDp =  0.07689

 Side 1  free  transition at x/c =  0.2808   60
 Side 2 forced transition at x/c =  1.0001   65

   3   rms: 0.1060E-01   max: -.7798E-01   D at   60  1
       a = 14.000      CL =  2.2338
      Cm = -0.2184     CD =  0.08168   =>   CDf =  0.00624    CDp =  0.07543

 Side 1  free  transition at x/c =  0.2807   60
 Side 2 forced transition at x/c =  1.0001   65

   4   rms: 0.1958E-02   max: -.8336E-02   D at   78  1
       a = 14.000      CL =  2.2356
      Cm = -0.2184     CD =  0.08162   =>   CDf =  0.00622    CDp =  0.07541

 Side 1  free  transition at x/c =  0.2806   60
 Side 2 forced transition at x/c =  1.0001   65

   5   rms: 0.8479E-04   max: -.6713E-03   D at   80  2
       a = 14.000      CL =  2.2357
      Cm = -0.2185     CD =  0.08165   =>   CDf =  0.00622    CDp =  0.07543

 Point added to stored polar  1
 Point written to save file  000123M0.1.log                                  
 Dump file unspecified or not available
 Calculating wake trajectory ...
 Calculating source influence matrix ...

 Solving BL system ...

 Side 1  free  transition at x/c =  0.2806   60
 Side 2 forced transition at x/c =  1.0001   65

   1   rms: 0.1271E+00   max: 0.6504E+00   D at   77  1   RLX: 0.425
       a = 15.000      CL =  2.2184
      Cm = -0.2176     CD =  0.09058   =>   CDf =  0.00625    CDp =  0.08433

 Side 1  free  transition at x/c =  0.2721   60
 Side 2 forced transition at x/c =  1.0001   65

   2   rms: 0.6074E-01   max: 0.2263E+00   D at   77  1
       a = 15.000      CL =  2.2231
      Cm = -0.2165     CD =  0.09695   =>   CDf =  0.00564    CDp =  0.09132

 Side 1  free  transition at x/c =  0.2646   60
 Side 2 forced transition at x/c =  1.0001   64

   3   rms: 0.9283E-02   max: -.6947E-01   C at   60  1
       a = 15.000      CL =  2.2233
      Cm = -0.2162     CD =  0.09570   =>   CDf =  0.00601    CDp =  0.08969

 Side 1  free  transition at x/c =  0.2636   60
 Side 2 forced transition at x/c =  1.0001   64

   4   rms: 0.2935E-02   max: -.1494E-01   D at   77  1
       a = 15.000      CL =  2.2259
      Cm = -0.2162     CD =  0.09548   =>   CDf =  0.00598    CDp =  0.08951

 Side 1  free  transition at x/c =  0.2635   60
 Side 2 forced transition at x/c =  1.0001   64

   5   rms: 0.2127E-03   max: -.1363E-02   D at   80  2
       a = 15.000      CL =  2.2261
      Cm = -0.2163     CD =  0.09552   =>   CDf =  0.00598    CDp =  0.08954

 Side 1  free  transition at x/c =  0.2635   60
 Side 2 forced transition at x/c =  1.0001   64

   6   rms: 0.1207E-04   max: -.9346E-04   D at   82  2
       a = 15.000      CL =  2.2261
      Cm = -0.2163     CD =  0.09553   =>   CDf =  0.00598    CDp =  0.08954

 Point added to stored polar  1
 Point written to save file  000123M0.1.log                                  
 Dump file unspecified or not available

.OPERva   c>  
 XFOIL   c>  
