Job launching after 0.33 seconds in submission.
Running python job.
Changed into dir /home/simonx/Documents/Udacity/Projects/capstone/PESM_NSGA2_CST_XFoil
Importing evaluationFunctionXFoil.py
Running evaluationFunctionXFoil.main()
0
1
2
0.04
resp: 
 ===================================================
  XFOIL Version 6.97
  Copyright (C) 2000   Mark Drela, Harold Youngren

  This software comes with ABSOLUTELY NO WARRANTY,
    subject to the GNU General Public License.

  Caveat computor
 ===================================================

 File  xfoil.def  not found

   QUIT    Exit program

  .OPER    Direct operating point(s)
  .MDES    Complex mapping design routine
  .QDES    Surface speed design routine
  .GDES    Geometry design routine

   SAVE f  Write airfoil to labeled coordinate file
   PSAV f  Write airfoil to plain coordinate file
   ISAV f  Write airfoil to ISES coordinate file
   MSAV f  Write airfoil to MSES coordinate file
   REVE    Reverse written-airfoil node ordering
   DELI i  Change written-airfoil file delimiters

   LOAD f  Read buffer airfoil from coordinate file
   NACA i  Set NACA 4,5-digit airfoil and buffer airfoil
   INTE    Set buffer airfoil by interpolating two airfoils
   NORM    Buffer airfoil normalization toggle
   HALF    Halve the number of points in buffer airfoil
   XYCM rr Change CM reference location, currently  0.25000 0.00000

   BEND    Display structural properties of current airfoil

   PCOP    Set current-airfoil panel nodes directly from buffer airfoil points
   PANE    Set current-airfoil panel nodes ( 160 ) based on curvature
  .PPAR    Show/change paneling

  .PLOP    Plotting options

   WDEF f  Write  current-settings file
   RDEF f  Reread current-settings file
   NAME s  Specify new airfoil name
   NINC    Increment name version number

   Z       Zoom    | (available in all menus)
   U       Unzoom  | 

 XFOIL   c>   ...............................................

  G raphics-enable flag:        T
  S ize of plot object          10.00"
  A spect ratio of plot object   0.5500
  P age dimensions              11.00 x  8.50"
  M argins from page edges       0.00",  0.00"
  F ont size (relative)          0.0150
  W indow/screen size fraction   0.8000
  B lowup input method:        Cursor    
  O rientation of plot:        Landscape 
  C olor PostScript output?     F

      Option, Value   (or <Return>)    c>   ...............................................

  G raphics-enable flag:        F
  S ize of plot object          10.00"
  A spect ratio of plot object   0.5500
  P age dimensions              11.00 x  8.50"
  M argins from page edges       0.00",  0.00"
  F ont size (relative)          0.0150
  W indow/screen size fraction   0.8000
  B lowup input method:        Cursor    
  O rientation of plot:        Landscape 
  C olor PostScript output?     F

      Option, Value   (or <Return>)    c>  
 XFOIL   c>  
 Labeled airfoil file.  Name:  000297                                          

 Number of input coordinate points: 200
 Clockwise ordering
 Max thickness =     0.164793  at x =   0.259
 Max camber    =     0.083638  at x =   0.375

  LE  x,y  =  -0.00002   0.00121  |   Chord =   0.99990
  TE  x,y  =   0.99988   0.00004  |

 Current airfoil nodes set from buffer airfoil nodes ( 200 )

 XFOIL   c>  
 You are working with the buffer airfoil

.GDES   c>  
  i       x        y      angle
   2   0.9990   0.0003    0.037
   3   0.9978   0.0008    0.015
   4   0.9961   0.0014    0.008
   5   0.9938   0.0021   -0.008
   6   0.9911   0.0031    0.005
   7   0.9880   0.0042    0.017
   8   0.9843   0.0054   -0.004
   9   0.9801   0.0069    0.022
  10   0.9755   0.0085    0.011
  11   0.9704   0.0102    0.020
  12   0.9649   0.0121    0.011
  13   0.9589   0.0142    0.015
  14   0.9524   0.0164    0.024
  15   0.9455   0.0188    0.021
  16   0.9382   0.0213    0.029
  17   0.9304   0.0240    0.030
  18   0.9222   0.0268    0.034
  19   0.9135   0.0298    0.042
  20   0.9045   0.0328    0.042
  21   0.8951   0.0361    0.052
  22   0.8853   0.0394    0.060
  23   0.8751   0.0428    0.065
  24   0.8645   0.0464    0.075
  25   0.8536   0.0501    0.076
  26   0.8423   0.0538    0.098
  27   0.8307   0.0577    0.104
  28   0.8187   0.0616    0.116
  29   0.8065   0.0656    0.129
  30   0.7939   0.0697    0.142
  31   0.7810   0.0738    0.165
  32   0.7679   0.0780    0.175
  33   0.7545   0.0823    0.197
  34   0.7409   0.0865    0.219
  35   0.7270   0.0908    0.233
  36   0.7129   0.0951    0.261
  37   0.6986   0.0993    0.285
  38   0.6841   0.1036    0.309
  39   0.6694   0.1078    0.333
  40   0.6545   0.1120    0.366
  41   0.6395   0.1161    0.392
  42   0.6243   0.1201    0.423
  43   0.6091   0.1241    0.458
  44   0.5937   0.1279    0.490
  45   0.5782   0.1317    0.521
  46   0.5627   0.1353    0.561
  47   0.5471   0.1387    0.595
  48   0.5314   0.1420    0.633
  49   0.5157   0.1452    0.668
  50   0.5000   0.1481    0.710
  51   0.4843   0.1508    0.747
  52   0.4686   0.1533    0.786
  53   0.4529   0.1556    0.829
  54   0.4373   0.1577    0.870
  55   0.4218   0.1595    0.901
  56   0.4063   0.1611    0.952
  57   0.3909   0.1623    0.981
  58   0.3757   0.1634    1.025
  59   0.3605   0.1641    1.064
  60   0.3455   0.1645    1.096
  61   0.3306   0.1647    1.139
  62   0.3159   0.1646    1.167
  63   0.3014   0.1641    1.206
  64   0.2871   0.1634    1.237
  65   0.2730   0.1624    1.271
  66   0.2591   0.1611    1.298
  67   0.2455   0.1595    1.336
  68   0.2321   0.1576    1.356
  69   0.2190   0.1554    1.396
  70   0.2061   0.1530    1.416
  71   0.1935   0.1503    1.454
  72   0.1813   0.1473    1.477
  73   0.1693   0.1441    1.511
  74   0.1577   0.1406    1.546
  75   0.1464   0.1369    1.576
  76   0.1355   0.1330    1.620
  77   0.1249   0.1288    1.662
  78   0.1147   0.1245    1.710
  79   0.1049   0.1199    1.764
  80   0.0955   0.1152    1.817
  81   0.0865   0.1104    1.890
  82   0.0778   0.1053    1.966
  83   0.0696   0.1002    2.053
  84   0.0618   0.0949    2.148
  85   0.0545   0.0895    2.255
  86   0.0476   0.0839    2.394
  87   0.0411   0.0783    2.510
  88   0.0351   0.0726    2.673
  89   0.0296   0.0668    2.836
  90   0.0245   0.0609    3.012
  91   0.0199   0.0550    3.211
  92   0.0157   0.0490    3.416
  93   0.0120   0.0430    3.604
  94   0.0089   0.0369    3.833
  95   0.0062   0.0308    4.014
  96   0.0039   0.0247    4.195
  97   0.0022   0.0185    4.357
  98   0.0010   0.0124    4.466
  99   0.0002   0.0062    4.542
 100   0.0000   0.0000    7.996
 101   0.0002  -0.0025   11.131
 102   0.0010  -0.0049   10.392
 103   0.0022  -0.0073    9.409
 104   0.0039  -0.0096    8.283
 105   0.0062  -0.0118    7.242
 106   0.0089  -0.0139    6.301
 107   0.0120  -0.0159    5.446
 108   0.0157  -0.0177    4.777
 109   0.0199  -0.0193    4.154
 110   0.0245  -0.0207    3.641
 111   0.0296  -0.0220    3.195
 112   0.0351  -0.0230    2.805
 113   0.0411  -0.0238    2.458
 114   0.0476  -0.0243    2.150
 115   0.0545  -0.0247    1.894
 116   0.0618  -0.0248    1.632
 117   0.0696  -0.0247    1.419
 118   0.0778  -0.0244    1.214
 119   0.0865  -0.0240    1.028
 120   0.0955  -0.0233    0.858
 121   0.1049  -0.0224    0.704
 122   0.1147  -0.0214    0.567
 123   0.1249  -0.0203    0.430
 124   0.1355  -0.0190    0.315
 125   0.1464  -0.0176    0.207
 126   0.1577  -0.0162    0.108
 127   0.1693  -0.0147    0.015
 128   0.1813  -0.0131   -0.061
 129   0.1935  -0.0115   -0.132
 130   0.2061  -0.0099   -0.194
 131   0.2190  -0.0083   -0.248
 132   0.2321  -0.0067   -0.289
 133   0.2455  -0.0052   -0.332
 134   0.2591  -0.0037   -0.355
 135   0.2730  -0.0022   -0.378
 136   0.2871  -0.0009   -0.390
 137   0.3014   0.0004   -0.402
 138   0.3159   0.0016   -0.399
 139   0.3306   0.0027   -0.398
 140   0.3455   0.0037   -0.381
 141   0.3605   0.0046   -0.371
 142   0.3757   0.0055   -0.347
 143   0.3909   0.0062   -0.328
 144   0.4063   0.0069   -0.303
 145   0.4218   0.0075   -0.268
 146   0.4373   0.0080   -0.250
 147   0.4529   0.0084   -0.210
 148   0.4686   0.0088   -0.182
 149   0.4843   0.0092   -0.154
 150   0.5000   0.0095   -0.124
 151   0.5157   0.0098   -0.094
 152   0.5314   0.0100   -0.068
 153   0.5471   0.0102   -0.049
 154   0.5627   0.0104   -0.023
 155   0.5782   0.0106   -0.011
 156   0.5937   0.0108    0.004
 157   0.6091   0.0110    0.017
 158   0.6243   0.0112    0.021
 159   0.6395   0.0115    0.019
 160   0.6545   0.0117    0.024
 161   0.6694   0.0119    0.013
 162   0.6841   0.0121    0.007
 163   0.6986   0.0123   -0.012
 164   0.7129   0.0125   -0.028
 165   0.7270   0.0127   -0.053
 166   0.7409   0.0129   -0.071
 167   0.7545   0.0131   -0.098
 168   0.7679   0.0132   -0.132
 169   0.7810   0.0133   -0.164
 170   0.7939   0.0134   -0.189
 171   0.8065   0.0134   -0.227
 172   0.8187   0.0134   -0.262
 173   0.8307   0.0133   -0.297
 174   0.8423   0.0131   -0.325
 175   0.8536   0.0129   -0.357
 176   0.8645   0.0127   -0.393
 177   0.8751   0.0124   -0.417
 178   0.8853   0.0120   -0.445
 179   0.8951   0.0115   -0.460
 180   0.9045   0.0110   -0.490
 181   0.9135   0.0105   -0.499
 182   0.9222   0.0098   -0.505
 183   0.9304   0.0092   -0.519
 184   0.9382   0.0085   -0.514
 185   0.9455   0.0078   -0.518
 186   0.9524   0.0070   -0.500
 187   0.9589   0.0063   -0.503
 188   0.9649   0.0055   -0.471
 189   0.9704   0.0048   -0.452
 190   0.9755   0.0041   -0.442
 191   0.9801   0.0034   -0.376
 192   0.9843   0.0027   -0.393
 193   0.9880   0.0021   -0.303
 194   0.9911   0.0016   -0.287
 195   0.9938   0.0011   -0.266
 196   0.9961   0.0007   -0.170
 197   0.9978   0.0004   -0.149
 198   0.9990   0.0002   -0.124
 199   0.9998   0.0000    0.014

 Maximum panel corner angle = 11.131   at  i,x,y  = 101   0.0002  -0.0025

 Enter corner angle criterion for refinement (deg):   5.565
 Enter type of spline parameter (1=uniform, 2=arclength):   1
 Enter refinement x limits:  -0.10000   1.10000
 Number of points added:           14
 Max thickness =     0.164771  at x =   0.259
 Max camber    =     0.084448  at x =   0.376

 Maximum panel corner angle =  6.160   at  i,x,y  = 103   0.0001  -0.0019

.GDES   c>  
 Buffer airfoil is not identical to current airfoil

 XFOIL   c>  
 Blunt trailing edge.  Gap =  0.00026

 Paneling parameters used...
   Number of panel nodes       160
   Panel bunching parameter    1.000
   TE/LE panel density ratio   0.150
   Refined-area/LE panel density ratio    0.200
   Top    side refined area x/c limits  1.000 1.000
   Bottom side refined area x/c limits  1.000 1.000

 XFOIL   c>  
Enter output filename   s>  
 XFOIL   c>  
.OPERi   c>   Current iteration limit:          20

Enter new iteration limit   i>  
Enter new iteration limit   i>  
Enter new iteration limit   i>  
.OPERi   c>  
 M  =    0.0000
 Re =  0.3000E+06

.OPERv   c>  
 Sonic Cp =   -420.65      Sonic Q/Qinf =    22.825


.OPERv   c>  
 Polar  1 newly created for accumulation
 Airfoil archived with polar: 000297                                          

Enter  polar save filename  OR  <return> for no file   s>  
 New polar save file available

Enter  polar dump filename  OR  <return> for no file   s>  
 Polar dump file will NOT be written

 Polar accumulation enabled

.OPERva   c>   Calculating unit vorticity distributions ...
 Calculating wake trajectory ...
 Calculating source influence matrix ...

 Solving BL system ...

 Initializing BL ...
    side            1  ...
 MRCHUE: Inverse mode at  55     Hk =   4.222
 MRCHUE: Inverse mode at  56     Hk =   5.036
 MRCHUE: Inverse mode at  57     Hk =   5.835
 MRCHUE: Inverse mode at  58     Hk =   6.627
 MRCHUE: Inverse mode at  59     Hk =   7.414
 MRCHUE: Inverse mode at  60     Hk =   8.199
 MRCHUE: Inverse mode at  61     Hk =   8.985
 MRCHUE: Inverse mode at  62     Hk =   6.776
 MRCHUE: Inverse mode at  63     Hk =   4.156
 MRCHUE: Inverse mode at  64     Hk =   2.538
 MRCHUE: Convergence failed at  88  side 1    Res =  0.1265E+02
    side            2  ...
 MRCHUE: Inverse mode at  31     Hk =   4.268
 MRCHUE: Inverse mode at  32     Hk =   5.018
 MRCHUE: Inverse mode at  33     Hk =   5.796
 MRCHUE: Inverse mode at  34     Hk =   6.600
 MRCHUE: Inverse mode at  35     Hk =   7.421
 MRCHUE: Inverse mode at  36     Hk =   8.252
 MRCHUE: Inverse mode at  37     Hk =   9.084
 MRCHUE: Inverse mode at  38     Hk =   7.691
 MRCHUE: Inverse mode at  39     Hk =   4.641
 MRCHUE: Inverse mode at  40     Hk =   2.907
 MRCHUE: Inverse mode at  74     Hk =   2.500

 MRCHDU: Convergence failed at  88  side 1    Res =  0.1745E+02
 Side 1  free  transition at x/c =  0.4888   62
 Side 2  free  transition at x/c =  0.2553   38

   1   rms: 0.3794E+00   max: -.1601E+01   D at   74  2   RLX: 0.312
       a =  2.000      CL =  1.1611
      Cm = -0.1712     CD =  0.01077   =>   CDf =  0.00855    CDp =  0.00222

 Side 1  free  transition at x/c =  0.4955   61
 Side 2  free  transition at x/c =  0.2481   39

   2   rms: 0.2002E+00   max: -.1287E+01   D at   75  2   RLX: 0.389
       a =  2.000      CL =  1.0931
      Cm = -0.1573     CD =  0.01255   =>   CDf =  0.00836    CDp =  0.00419

 Side 1  free  transition at x/c =  0.5035   62
 Side 2  free  transition at x/c =  0.2466   39

   3   rms: 0.1120E+00   max: -.1000E+01   D at   75  2   RLX: 0.500
       a =  2.000      CL =  1.0756
      Cm = -0.1544     CD =  0.01308   =>   CDf =  0.00837    CDp =  0.00471

 Side 1  free  transition at x/c =  0.5083   61
 Side 2  free  transition at x/c =  0.2481   40

   4   rms: 0.3841E+01   max: 0.6821E+02   D at    2  2   RLX: 0.018
       a =  2.000      CL =  1.0760
      Cm = -0.1545     CD =  0.01342   =>   CDf =  0.00810    CDp =  0.00532

 Side 1  free  transition at x/c =  0.5084   61
 Side 2  free  transition at x/c =  0.2484   40

   5   rms: 0.7119E-01   max: -.5317E+00   D at   76  2   RLX: 0.940
       a =  2.000      CL =  1.1218
      Cm = -0.1648     CD =  0.01501   =>   CDf =  0.00793    CDp =  0.00708

 Side 1  free  transition at x/c =  0.5126   62
 Side 2  free  transition at x/c =  0.2612   39

   6   rms: 0.2572E-01   max: -.2315E+00   T at   39  2
       a =  2.000      CL =  1.1405
      Cm = -0.1688     CD =  0.01536   =>   CDf =  0.00804    CDp =  0.00732

 Side 1  free  transition at x/c =  0.5125   62
 Side 2  free  transition at x/c =  0.2762   40

   7   rms: 0.1041E-01   max: 0.1835E+00   D at   40  2
       a =  2.000      CL =  1.1413
      Cm = -0.1690     CD =  0.01527   =>   CDf =  0.00790    CDp =  0.00737

 Side 1  free  transition at x/c =  0.5124   62
 Side 2  free  transition at x/c =  0.2754   40

   8   rms: 0.1046E-02   max: 0.1631E-01   C at   40  2
       a =  2.000      CL =  1.1413
      Cm = -0.1690     CD =  0.01526   =>   CDf =  0.00790    CDp =  0.00736

 Side 1  free  transition at x/c =  0.5124   62
 Side 2  free  transition at x/c =  0.2749   40

   9   rms: 0.6827E-05   max: -.1128E-03   D at   41  2
       a =  2.000      CL =  1.1413
      Cm = -0.1690     CD =  0.01526   =>   CDf =  0.00791    CDp =  0.00735

 Point added to stored polar  1
 Point written to save file  000297M0.04.log                                 
 Dump file unspecified or not available
 Calculating wake trajectory ...
 Calculating source influence matrix ...

 Solving BL system ...

 Side 1  free  transition at x/c =  0.5124   62
 Side 2  free  transition at x/c =  0.2749   40

   1   rms: 0.1913E+00   max: -.1275E+01   T at   40  2   RLX: 0.392
       a =  3.000      CL =  1.1849
      Cm = -0.1693     CD =  0.01532   =>   CDf =  0.00792    CDp =  0.00740

 Side 1  free  transition at x/c =  0.5043   62
 Side 2  free  transition at x/c =  0.3186   42

   2   rms: 0.1269E+00   max: -.1266E+01   T at   42  2   RLX: 0.395
       a =  3.000      CL =  1.2125
      Cm = -0.1695     CD =  0.01562   =>   CDf =  0.00776    CDp =  0.00787

 Side 1  free  transition at x/c =  0.5009   63
 Side 2  free  transition at x/c =  0.3686   44

   3   rms: 0.2361E+00   max: -.3505E+01   C at   44  2   RLX: 0.143
       a =  3.000      CL =  1.2201
      Cm = -0.1700     CD =  0.01547   =>   CDf =  0.00785    CDp =  0.00762

 Side 1  free  transition at x/c =  0.5001   63
 Side 2  free  transition at x/c =  0.3885   45

   4   rms: 0.2693E+00   max: -.4339E+01   C at   45  2   RLX: 0.115
       a =  3.000      CL =  1.2263
      Cm = -0.1705     CD =  0.01548   =>   CDf =  0.00782    CDp =  0.00766

 Side 1  free  transition at x/c =  0.4995   62
 Side 2  free  transition at x/c =  0.4105   46

   5   rms: 0.3417E+00   max: -.6191E+01   C at   46  2   RLX: 0.081
       a =  3.000      CL =  1.2303
      Cm = -0.1709     CD =  0.01544   =>   CDf =  0.00776    CDp =  0.00768

 Side 1  free  transition at x/c =  0.4992   62
 Side 2  free  transition at x/c =  0.4301   46

   6   rms: 0.1267E+00   max: -.1777E+01   C at   46  2   RLX: 0.281
       a =  3.000      CL =  1.2389
      Cm = -0.1711     CD =  0.01539   =>   CDf =  0.00768    CDp =  0.00770

 Side 1  free  transition at x/c =  0.4980   62
 Side 2  free  transition at x/c =  0.9288   69

   7   rms: 0.1213E+01   max: -.1828E+02   C at   69  2   RLX: 0.027
       a =  3.000      CL =  1.2350
      Cm = -0.1690     CD =  0.01449   =>   CDf =  0.00652    CDp =  0.00797

 Side 1  free  transition at x/c =  0.4979   62
 Side 2  free  transition at x/c =  0.9303   69

   8   rms: 0.2845E+00   max: -.4974E+01   C at   69  2   RLX: 0.101
       a =  3.000      CL =  1.2334
      Cm = -0.1685     CD =  0.01450   =>   CDf =  0.00653    CDp =  0.00797

 Side 1  free  transition at x/c =  0.4977   62
 Side 2  free  transition at x/c =  0.9512   71

   9   rms: 0.1356E+01   max: -.2274E+02   C at   71  2   RLX: 0.022
       a =  3.000      CL =  1.2338
      Cm = -0.1688     CD =  0.01448   =>   CDf =  0.00650    CDp =  0.00798

 Side 1  free  transition at x/c =  0.4977   62
 Side 2  free  transition at x/c =  0.9589   71

  10   rms: 0.2577E+01   max: -.3952E+02   C at   71  2   RLX: 0.013
       a =  3.000      CL =  1.2336
      Cm = -0.1687     CD =  0.01446   =>   CDf =  0.00649    CDp =  0.00798

 Side 1  free  transition at x/c =  0.4977   62
 Side 2  free  transition at x/c =  0.9768   73

  11   rms: 0.7362E+01   max: -.1440E+03   C at   73  2   RLX: 0.003
       a =  3.000      CL =  1.2338
      Cm = -0.1689     CD =  0.01446   =>   CDf =  0.00648    CDp =  0.00798

 Side 1  free  transition at x/c =  0.4977   62
 Side 2  free  transition at x/c =  0.9867   73

  12   rms: 0.9124E+01   max: -.1774E+03   C at   73  2   RLX: 0.003
       a =  3.000      CL =  1.2337
      Cm = -0.1688     CD =  0.01445   =>   CDf =  0.00648    CDp =  0.00798

 Side 1  free  transition at x/c =  0.4977   62
 Side 2  free  transition at x/c =  0.9948   74

  13   rms: 0.1473E+03   max: -.3996E+04   C at   74  2   RLX: 0.000
       a =  3.000      CL =  1.2340
      Cm = -0.1689     CD =  0.01445   =>   CDf =  0.00648    CDp =  0.00797

 Side 1  free  transition at x/c =  0.4976   62
 Side 2  free  transition at x/c =  0.9987   74

  14   rms: 0.2611E+02   max: 0.7080E+03   C at   74  2   RLX: 0.002
       a =  3.000      CL =  1.2327
      Cm = -0.1686     CD =  0.01445   =>   CDf =  0.00648    CDp =  0.00797

 Side 1  free  transition at x/c =  0.4977   62
 Side 2  free  transition at x/c =  0.9886   73

  15   rms: 0.9352E+01   max: -.1816E+03   C at   73  2   RLX: 0.003
       a =  3.000      CL =  1.2327
      Cm = -0.1686     CD =  0.01445   =>   CDf =  0.00648    CDp =  0.00797

 Side 1  free  transition at x/c =  0.4977   62
 Side 2  free  transition at x/c =  0.9966   74

  16   rms: 0.6299E+02   max: 0.1708E+04   C at   74  2   RLX: 0.001
       a =  3.000      CL =  1.2317
      Cm = -0.1684     CD =  0.01445   =>   CDf =  0.00648    CDp =  0.00797

 Side 1  free  transition at x/c =  0.4977   62
 Side 2  free  transition at x/c =  0.9854   73

  17   rms: 0.8939E+01   max: -.1739E+03   C at   73  2   RLX: 0.003
       a =  3.000      CL =  1.2316
      Cm = -0.1684     CD =  0.01444   =>   CDf =  0.00648    CDp =  0.00797

 Side 1  free  transition at x/c =  0.4977   62
 Side 2  free  transition at x/c =  0.9938   74

  18   rms: 0.5256E+02   max: -.1425E+04   C at   74  2   RLX: 0.000
       a =  3.000      CL =  1.2319
      Cm = -0.1684     CD =  0.01444   =>   CDf =  0.00648    CDp =  0.00797

 Side 1  free  transition at x/c =  0.4977   62
 Side 2  free  transition at x/c =  0.9980   74

  19   rms: 0.3042E+02   max: 0.8250E+03   C at   74  2   RLX: 0.002
       a =  3.000      CL =  1.2307
      Cm = -0.1682     CD =  0.01444   =>   CDf =  0.00648    CDp =  0.00797

 Side 1  free  transition at x/c =  0.4977   62
 Side 2  free  transition at x/c =  0.9873   73

  20   rms: 0.9222E+01   max: -.1792E+03   C at   73  2   RLX: 0.003
       a =  3.000      CL =  1.2306
      Cm = -0.1682     CD =  0.01444   =>   CDf =  0.00648    CDp =  0.00796

 Side 1  free  transition at x/c =  0.4977   62
 Side 2  free  transition at x/c =  0.9955   74

  21   rms: 0.1831E+03   max: 0.4965E+04   C at   74  2   RLX: 0.000
       a =  3.000      CL =  1.2298
      Cm = -0.1680     CD =  0.01444   =>   CDf =  0.00647    CDp =  0.00796

 Side 1  free  transition at x/c =  0.4977   62
 Side 2  free  transition at x/c =  0.9835   73

  22   rms: 0.8607E+01   max: -.1676E+03   C at   73  2   RLX: 0.003
       a =  3.000      CL =  1.2297
      Cm = -0.1680     CD =  0.01443   =>   CDf =  0.00648    CDp =  0.00796

 Side 1  free  transition at x/c =  0.4977   62
 Side 2  free  transition at x/c =  0.9923   74

  23   rms: 0.2587E+02   max: -.7017E+03   C at   74  2   RLX: 0.001
       a =  3.000      CL =  1.2299
      Cm = -0.1680     CD =  0.01443   =>   CDf =  0.00647    CDp =  0.00796

 Side 1  free  transition at x/c =  0.4977   62
 Side 2  free  transition at x/c =  0.9970   74

  24   rms: 0.4230E+02   max: 0.1147E+04   C at   74  2   RLX: 0.001
       a =  3.000      CL =  1.2288
      Cm = -0.1678     CD =  0.01443   =>   CDf =  0.00647    CDp =  0.00796

 Side 1  free  transition at x/c =  0.4978   62
 Side 2  free  transition at x/c =  0.9856   73

  25   rms: 0.8928E+01   max: -.1736E+03   C at   73  2   RLX: 0.003
       a =  3.000      CL =  1.2288
      Cm = -0.1678     CD =  0.01443   =>   CDf =  0.00647    CDp =  0.00795
 VISCAL:  Convergence failed
 Calculating wake trajectory ...
 Calculating source influence matrix ...

 Solving BL system ...

 Side 1  free  transition at x/c =  0.4977   62
 Side 2  free  transition at x/c =  0.9942   74

   1   rms: 0.3596E+03   max: -.9754E+04   C at   74  2   RLX: 0.000
       a =  4.000      CL =  1.2287
      Cm = -0.1678     CD =  0.01443   =>   CDf =  0.00649    CDp =  0.00794

 Side 1  free  transition at x/c =  0.4977   62
 Side 2  free  transition at x/c =  0.9985   74

   2   rms: 0.8466E+02   max: 0.2296E+04   C at   74  2   RLX: 0.001
       a =  4.000      CL =  1.2275
      Cm = -0.1676     CD =  0.01443   =>   CDf =  0.00649    CDp =  0.00794

 Side 1  free  transition at x/c =  0.4978   62
 Side 2  free  transition at x/c =  0.9875   73

   3   rms: 0.3194E+02   max: -.6205E+03   C at   73  2   RLX: 0.001
       a =  4.000      CL =  1.2276
      Cm = -0.1675     CD =  0.01442   =>   CDf =  0.00649    CDp =  0.00794

 Side 1  free  transition at x/c =  0.4977   62
 Side 2  free  transition at x/c =  0.9959   74

   4   rms: 0.2752E+03   max: 0.7464E+04   C at   74  2   RLX: 0.000
       a =  4.000      CL =  1.2267
      Cm = -0.1674     CD =  0.01442   =>   CDf =  0.00649    CDp =  0.00794

 Side 1  free  transition at x/c =  0.4978   62
 Side 2  free  transition at x/c =  0.9836   73

   5   rms: 0.2990E+02   max: -.5821E+03   C at   73  2   RLX: 0.001
       a =  4.000      CL =  1.2267
      Cm = -0.1673     CD =  0.01442   =>   CDf =  0.00649    CDp =  0.00793

 Side 1  free  transition at x/c =  0.4977   62
 Side 2  free  transition at x/c =  0.9927   74

   6   rms: 0.1128E+03   max: -.3058E+04   C at   74  2   RLX: 0.000
       a =  4.000      CL =  1.2269
      Cm = -0.1674     CD =  0.01442   =>   CDf =  0.00649    CDp =  0.00793

 Side 1  free  transition at x/c =  0.4977   62
 Side 2  free  transition at x/c =  0.9974   74

   7   rms: 0.1160E+03   max: 0.3146E+04   C at   74  2   RLX: 0.000
       a =  4.000      CL =  1.2258
      Cm = -0.1672     CD =  0.01442   =>   CDf =  0.00649    CDp =  0.00793

 Side 1  free  transition at x/c =  0.4978   62
 Side 2  free  transition at x/c =  0.9856   73

   8   rms: 0.3111E+02   max: -.6050E+03   C at   73  2   RLX: 0.001
       a =  4.000      CL =  1.2259
      Cm = -0.1671     CD =  0.01442   =>   CDf =  0.00649    CDp =  0.00793

 Side 1  free  transition at x/c =  0.4977   62
 Side 2  free  transition at x/c =  0.9944   74

   9   rms: 0.7136E+03   max: -.1935E+05   C at   74  2   RLX: 0.000
       a =  4.000      CL =  1.2262
      Cm = -0.1672     CD =  0.01441   =>   CDf =  0.00649    CDp =  0.00793

 Side 1  free  transition at x/c =  0.4977   62
 Side 2  free  transition at x/c =  0.9989   74

  10   rms: 0.7601E+02   max: 0.2061E+04   C at   74  2   RLX: 0.001
       a =  4.000      CL =  1.2250
      Cm = -0.1669     CD =  0.01441   =>   CDf =  0.00649    CDp =  0.00793

 Side 1  free  transition at x/c =  0.4978   62
 Side 2  free  transition at x/c =  0.9875   73

  11   rms: 0.3227E+02   max: -.6269E+03   C at   73  2   RLX: 0.001
       a =  4.000      CL =  1.2250
      Cm = -0.1669     CD =  0.01441   =>   CDf =  0.00649    CDp =  0.00793

 Side 1  free  transition at x/c =  0.4977   62
 Side 2  free  transition at x/c =  0.9961   74

  12   rms: 0.2275E+03   max: 0.6169E+04   C at   74  2   RLX: 0.000
       a =  4.000      CL =  1.2241
      Cm = -0.1667     CD =  0.01441   =>   CDf =  0.00649    CDp =  0.00793

 Side 1  free  transition at x/c =  0.4978   62
 Side 2  free  transition at x/c =  0.9832   73

  13   rms: 0.3001E+02   max: -.5843E+03   C at   73  2   RLX: 0.001
       a =  4.000      CL =  1.2242
      Cm = -0.1667     CD =  0.01441   =>   CDf =  0.00649    CDp =  0.00792

 Side 1  free  transition at x/c =  0.4977   62
 Side 2  free  transition at x/c =  0.9925   74

  14   rms: 0.1122E+03   max: -.3044E+04   C at   74  2   RLX: 0.000
       a =  4.000      CL =  1.2244
      Cm = -0.1668     CD =  0.01441   =>   CDf =  0.00648    CDp =  0.00792

 Side 1  free  transition at x/c =  0.4977   62
 Side 2  free  transition at x/c =  0.9975   74

  15   rms: 0.1121E+03   max: 0.3041E+04   C at   74  2   RLX: 0.000
       a =  4.000      CL =  1.2233
      Cm = -0.1665     CD =  0.01441   =>   CDf =  0.00648    CDp =  0.00792

 Side 1  free  transition at x/c =  0.4978   62
 Side 2  free  transition at x/c =  0.9850   73

  16   rms: 0.3119E+02   max: -.6066E+03   C at   73  2   RLX: 0.001
       a =  4.000      CL =  1.2234
      Cm = -0.1665     CD =  0.01440   =>   CDf =  0.00648    CDp =  0.00792

 Side 1  free  transition at x/c =  0.4977   62
 Side 2  free  transition at x/c =  0.9941   74

  17   rms: 0.4796E+03   max: -.1301E+05   C at   74  2   RLX: 0.000
       a =  4.000      CL =  1.2236
      Cm = -0.1666     CD =  0.01440   =>   CDf =  0.00648    CDp =  0.00792

 Side 1  free  transition at x/c =  0.4977   62
 Side 2  free  transition at x/c =  0.9988   74

  18   rms: 0.7719E+02   max: 0.2093E+04   C at   74  2   RLX: 0.001
       a =  4.000      CL =  1.2224
      Cm = -0.1663     CD =  0.01440   =>   CDf =  0.00648    CDp =  0.00792

 Side 1  free  transition at x/c =  0.4978   62
 Side 2  free  transition at x/c =  0.9867   73

  19   rms: 0.3232E+02   max: -.6279E+03   C at   73  2   RLX: 0.001
       a =  4.000      CL =  1.2225
      Cm = -0.1663     CD =  0.01440   =>   CDf =  0.00648    CDp =  0.00792

 Side 1  free  transition at x/c =  0.4977   62
 Side 2  free  transition at x/c =  0.9955   74

  20   rms: 0.3410E+03   max: 0.9248E+04   C at   74  2   RLX: 0.000
       a =  4.000      CL =  1.2216
      Cm = -0.1661     CD =  0.01440   =>   CDf =  0.00648    CDp =  0.00792

 Side 1  free  transition at x/c =  0.4978   62
 Side 2  free  transition at x/c =  0.9818   73

  21   rms: 0.2951E+02   max: -.5747E+03   C at   73  2   RLX: 0.001
       a =  4.000      CL =  1.2217
      Cm = -0.1661     CD =  0.01440   =>   CDf =  0.00648    CDp =  0.00791

 Side 1  free  transition at x/c =  0.4977   62
 Side 2  free  transition at x/c =  0.9914   74

  22   rms: 0.7980E+02   max: -.2164E+04   C at   74  2   RLX: 0.000
       a =  4.000      CL =  1.2219
      Cm = -0.1662     CD =  0.01439   =>   CDf =  0.00648    CDp =  0.00791

 Side 1  free  transition at x/c =  0.4977   62
 Side 2  free  transition at x/c =  0.9969   74

  23   rms: 0.1380E+03   max: 0.3742E+04   C at   74  2   RLX: 0.000
       a =  4.000      CL =  1.2208
      Cm = -0.1659     CD =  0.01440   =>   CDf =  0.00648    CDp =  0.00791

 Side 1  free  transition at x/c =  0.4978   62
 Side 2  free  transition at x/c =  0.9836   73

  24   rms: 0.3066E+02   max: -.5966E+03   C at   73  2   RLX: 0.001
       a =  4.000      CL =  1.2209
      Cm = -0.1659     CD =  0.01439   =>   CDf =  0.00648    CDp =  0.00791

 Side 1  free  transition at x/c =  0.4977   62
 Side 2  free  transition at x/c =  0.9930   74

  25   rms: 0.1730E+03   max: -.4692E+04   C at   74  2   RLX: 0.000
       a =  4.000      CL =  1.2212
      Cm = -0.1660     CD =  0.01439   =>   CDf =  0.00648    CDp =  0.00791
 VISCAL:  Convergence failed
 Calculating wake trajectory ...
 Calculating source influence matrix ...

 Solving BL system ...

 Side 1  free  transition at x/c =  0.4977   62
 Side 2  free  transition at x/c =  0.9982   74

   1   rms: 0.1555E+03   max: 0.4217E+04   C at   74  2   RLX: 0.000
       a =  5.000      CL =  1.2193
      Cm = -0.1657     CD =  0.01439   =>   CDf =  0.00649    CDp =  0.00790

 Side 1  free  transition at x/c =  0.4978   62
 Side 2  free  transition at x/c =  0.9851   73

   2   rms: 0.5452E+02   max: -.1060E+04   C at   73  2   RLX: 0.000
       a =  5.000      CL =  1.2194
      Cm = -0.1657     CD =  0.01439   =>   CDf =  0.00649    CDp =  0.00789

 Side 1  free  transition at x/c =  0.4977   62
 Side 2  free  transition at x/c =  0.9944   74

   3   rms: 0.2579E+04   max: -.6994E+05   C at   74  2   RLX: 0.000
       a =  5.000      CL =  1.2197
      Cm = -0.1658     CD =  0.01439   =>   CDf =  0.00649    CDp =  0.00789

 Side 1  free  transition at x/c =  0.4977   62
 Side 2  free  transition at x/c =  0.9994   74

   4   rms: 0.1202E+03   max: 0.3259E+04   C at   74  2   RLX: 0.000
       a =  5.000      CL =  1.2185
      Cm = -0.1655     CD =  0.01439   =>   CDf =  0.00649    CDp =  0.00789

 Side 1  free  transition at x/c =  0.4977   62
 Side 2  free  transition at x/c =  0.9864   73

   5   rms: 0.5631E+02   max: -.1094E+04   C at   73  2   RLX: 0.000
       a =  5.000      CL =  1.2186
      Cm = -0.1655     CD =  0.01438   =>   CDf =  0.00649    CDp =  0.00789

 Side 1  free  transition at x/c =  0.4977   62
 Side 2  free  transition at x/c =  0.9955   74

   6   rms: 0.5750E+03   max: 0.1559E+05   C at   74  2   RLX: 0.000
       a =  5.000      CL =  1.2177
      Cm = -0.1653     CD =  0.01439   =>   CDf =  0.00649    CDp =  0.00789

 Side 1  free  transition at x/c =  0.4978   62
 Side 2  free  transition at x/c =  0.9808   73

   7   rms: 0.5043E+02   max: -.9824E+03   C at   73  2   RLX: 0.001
       a =  5.000      CL =  1.2178
      Cm = -0.1653     CD =  0.01438   =>   CDf =  0.00649    CDp =  0.00789

 Side 1  free  transition at x/c =  0.4977   62
 Side 2  free  transition at x/c =  0.9907   74

   8   rms: 0.1204E+03   max: -.3266E+04   C at   74  2   RLX: 0.000
       a =  5.000      CL =  1.2180
      Cm = -0.1654     CD =  0.01438   =>   CDf =  0.00649    CDp =  0.00789

 Side 1  free  transition at x/c =  0.4977   62
 Side 2  free  transition at x/c =  0.9967   74

   9   rms: 0.2643E+03   max: 0.7168E+04   C at   74  2   RLX: 0.000
       a =  5.000      CL =  1.2170
      Cm = -0.1651     CD =  0.01438   =>   CDf =  0.00649    CDp =  0.00789

 Side 1  free  transition at x/c =  0.4977   62
 Side 2  free  transition at x/c =  0.9822   73

  10   rms: 0.5224E+02   max: -.1017E+04   C at   73  2   RLX: 0.000
       a =  5.000      CL =  1.2171
      Cm = -0.1651     CD =  0.01438   =>   CDf =  0.00649    CDp =  0.00789

 Side 1  free  transition at x/c =  0.4977   62
 Side 2  free  transition at x/c =  0.9920   74

  11   rms: 0.1979E+03   max: -.5368E+04   C at   74  2   RLX: 0.000
       a =  5.000      CL =  1.2173
      Cm = -0.1652     CD =  0.01438   =>   CDf =  0.00649    CDp =  0.00788

 Side 1  free  transition at x/c =  0.4977   62
 Side 2  free  transition at x/c =  0.9978   74

  12   rms: 0.1809E+03   max: 0.4907E+04   C at   74  2   RLX: 0.000
       a =  5.000      CL =  1.2162
      Cm = -0.1649     CD =  0.01438   =>   CDf =  0.00649    CDp =  0.00789

 Side 1  free  transition at x/c =  0.4977   62
 Side 2  free  transition at x/c =  0.9835   73

  13   rms: 0.5390E+02   max: -.1048E+04   C at   73  2   RLX: 0.000
       a =  5.000      CL =  1.2163
      Cm = -0.1649     CD =  0.01437   =>   CDf =  0.00649    CDp =  0.00788

 Side 1  free  transition at x/c =  0.4977   62
 Side 2  free  transition at x/c =  0.9931   74

  14   rms: 0.3716E+03   max: -.1008E+05   C at   74  2   RLX: 0.000
       a =  5.000      CL =  1.2166
      Cm = -0.1650     CD =  0.01437   =>   CDf =  0.00649    CDp =  0.00788

 Side 1  free  transition at x/c =  0.4977   62
 Side 2  free  transition at x/c =  0.9988   74

  15   rms: 0.1433E+03   max: 0.3885E+04   C at   74  2   RLX: 0.000
       a =  5.000      CL =  1.2154
      Cm = -0.1647     CD =  0.01437   =>   CDf =  0.00649    CDp =  0.00788

 Side 1  free  transition at x/c =  0.4977   62
 Side 2  free  transition at x/c =  0.9845   73

  16   rms: 0.5543E+02   max: -.1077E+04   C at   73  2   RLX: 0.000
       a =  5.000      CL =  1.2155
      Cm = -0.1647     CD =  0.01437   =>   CDf =  0.00649    CDp =  0.00788

 Side 1  free  transition at x/c =  0.4977   62
 Side 2  free  transition at x/c =  0.9940   74

  17   rms: 0.1175E+04   max: -.3186E+05   C at   74  2   RLX: 0.000
       a =  5.000      CL =  1.2158
      Cm = -0.1648     CD =  0.01437   =>   CDf =  0.00649    CDp =  0.00788

 Side 1  free  transition at x/c =  0.4977   62
 Side 2  free  transition at x/c =  0.9996   74

  18   rms: 0.1241E+03   max: 0.3366E+04   C at   74  2   RLX: 0.000
       a =  5.000      CL =  1.2146
      Cm = -0.1645     CD =  0.01437   =>   CDf =  0.00649    CDp =  0.00788

 Side 1  free  transition at x/c =  0.4977   62
 Side 2  free  transition at x/c =  0.9851   73

  19   rms: 0.5671E+02   max: -.1102E+04   C at   73  2   RLX: 0.000
       a =  5.000      CL =  1.2147
      Cm = -0.1645     CD =  0.01437   =>   CDf =  0.00649    CDp =  0.00788

 Side 1  free  transition at x/c =  0.4977   62
 Side 2  free  transition at x/c =  0.9946   74

  20   rms: 0.5687E+04   max: 0.1542E+06   C at   74  2   RLX: 0.000
       a =  5.000      CL =  1.2139
      Cm = -0.1644     CD =  0.01437   =>   CDf =  0.00649    CDp =  0.00788

 Side 1  free  transition at x/c =  0.4977   62
 Side 2  free  transition at x/c =  0.9782   73

  21   rms: 0.4857E+02   max: -.9471E+03   C at   73  2   RLX: 0.001
       a =  5.000      CL =  1.2140
      Cm = -0.1643     CD =  0.01436   =>   CDf =  0.00649    CDp =  0.00788

 Side 1  free  transition at x/c =  0.4977   62
 Side 2  free  transition at x/c =  0.9886   73

  22   rms: 0.6166E+02   max: -.1196E+04   C at   73  2   RLX: 0.000
       a =  5.000      CL =  1.2141
      Cm = -0.1643     CD =  0.01436   =>   CDf =  0.00649    CDp =  0.00787

 Side 1  free  transition at x/c =  0.4977   62
 Side 2  free  transition at x/c =  0.9978   74

  23   rms: 0.2082E+03   max: 0.5647E+04   C at   74  2   RLX: 0.000
       a =  5.000      CL =  1.2130
      Cm = -0.1641     CD =  0.01436   =>   CDf =  0.00649    CDp =  0.00787

 Side 1  free  transition at x/c =  0.4977   62
 Side 2  free  transition at x/c =  0.9819   73

  24   rms: 0.5468E+02   max: -.1064E+04   C at   73  2   RLX: 0.000
       a =  5.000      CL =  1.2131
      Cm = -0.1641     CD =  0.01436   =>   CDf =  0.00649    CDp =  0.00787

 Side 1  free  transition at x/c =  0.4977   62
 Side 2  free  transition at x/c =  0.9917   74

  25   rms: 0.1896E+03   max: -.5141E+04   C at   74  2   RLX: 0.000
       a =  5.000      CL =  1.2134
      Cm = -0.1642     CD =  0.01436   =>   CDf =  0.00649    CDp =  0.00787
 VISCAL:  Convergence failed
 Calculating wake trajectory ...
 Calculating source influence matrix ...

 Solving BL system ...

 Side 1  free  transition at x/c =  0.4977   62
 Side 2  free  transition at x/c =  0.9981   74

   1   rms: 0.2830E+03   max: 0.7676E+04   C at   74  2   RLX: 0.000
       a =  6.000      CL =  1.2113
      Cm = -0.1639     CD =  0.01436   =>   CDf =  0.00650    CDp =  0.00786

 Side 1  free  transition at x/c =  0.4977   62
 Side 2  free  transition at x/c =  0.9819   73

   2   rms: 0.7787E+02   max: -.1515E+04   C at   73  2   RLX: 0.000
       a =  6.000      CL =  1.2114
      Cm = -0.1639     CD =  0.01436   =>   CDf =  0.00650    CDp =  0.00786

 Side 1  free  transition at x/c =  0.4977   62
 Side 2  free  transition at x/c =  0.9917   74

   3   rms: 0.2749E+03   max: -.7455E+04   C at   74  2   RLX: 0.000
       a =  6.000      CL =  1.2116
      Cm = -0.1640     CD =  0.01435   =>   CDf =  0.00650    CDp =  0.00786

 Side 1  free  transition at x/c =  0.4977   62
 Side 2  free  transition at x/c =  0.9982   74

   4   rms: 0.2821E+03   max: 0.7650E+04   C at   74  2   RLX: 0.000
       a =  6.000      CL =  1.2105
      Cm = -0.1637     CD =  0.01436   =>   CDf =  0.00650    CDp =  0.00786

 Side 1  free  transition at x/c =  0.4977   62
 Side 2  free  transition at x/c =  0.9817   73

   5   rms: 0.7798E+02   max: -.1517E+04   C at   73  2   RLX: 0.000
       a =  6.000      CL =  1.2107
      Cm = -0.1637     CD =  0.01435   =>   CDf =  0.00650    CDp =  0.00786

 Side 1  free  transition at x/c =  0.4977   62
 Side 2  free  transition at x/c =  0.9916   74

   6   rms: 0.2689E+03   max: -.7292E+04   C at   74  2   RLX: 0.000
       a =  6.000      CL =  1.2109
      Cm = -0.1638     CD =  0.01435   =>   CDf =  0.00650    CDp =  0.00785

 Side 1  free  transition at x/c =  0.4977   62
 Side 2  free  transition at x/c =  0.9983   74

   7   rms: 0.2894E+03   max: 0.7848E+04   C at   74  2   RLX: 0.000
       a =  6.000      CL =  1.2098
      Cm = -0.1636     CD =  0.01435   =>   CDf =  0.00650    CDp =  0.00786

 Side 1  free  transition at x/c =  0.4977   62
 Side 2  free  transition at x/c =  0.9814   73

   8   rms: 0.7783E+02   max: -.1515E+04   C at   73  2   RLX: 0.000
       a =  6.000      CL =  1.2099
      Cm = -0.1636     CD =  0.01435   =>   CDf =  0.00650    CDp =  0.00785

 Side 1  free  transition at x/c =  0.4977   62
 Side 2  free  transition at x/c =  0.9913   74

   9   rms: 0.2512E+03   max: -.6814E+04   C at   74  2   RLX: 0.000
       a =  6.000      CL =  1.2102
      Cm = -0.1636     CD =  0.01435   =>   CDf =  0.00650    CDp =  0.00785

 Side 1  free  transition at x/c =  0.4977   62
 Side 2  free  transition at x/c =  0.9982   74

  10   rms: 0.3094E+03   max: 0.8393E+04   C at   74  2   RLX: 0.000
       a =  6.000      CL =  1.2091
      Cm = -0.1634     CD =  0.01435   =>   CDf =  0.00650    CDp =  0.00785

 Side 1  free  transition at x/c =  0.4977   62
 Side 2  free  transition at x/c =  0.9809   73

  11   rms: 0.7728E+02   max: -.1504E+04   C at   73  2   RLX: 0.000
       a =  6.000      CL =  1.2092
      Cm = -0.1634     CD =  0.01435   =>   CDf =  0.00650    CDp =  0.00785

 Side 1  free  transition at x/c =  0.4977   62
 Side 2  free  transition at x/c =  0.9910   74

  12   rms: 0.2270E+03   max: -.6155E+04   C at   74  2   RLX: 0.000
       a =  6.000      CL =  1.2095
      Cm = -0.1634     CD =  0.01434   =>   CDf =  0.00649    CDp =  0.00785

 Side 1  free  transition at x/c =  0.4976   62
 Side 2  free  transition at x/c =  0.9980   74

  13   rms: 0.3404E+03   max: 0.9232E+04   C at   74  2   RLX: 0.000
       a =  6.000      CL =  1.2084
      Cm = -0.1632     CD =  0.01435   =>   CDf =  0.00649    CDp =  0.00785

 Side 1  free  transition at x/c =  0.4977   62
 Side 2  free  transition at x/c =  0.9804   73

  14   rms: 0.7655E+02   max: -.1490E+04   C at   73  2   RLX: 0.000
       a =  6.000      CL =  1.2085
      Cm = -0.1632     CD =  0.01434   =>   CDf =  0.00650    CDp =  0.00785

 Side 1  free  transition at x/c =  0.4977   62
 Side 2  free  transition at x/c =  0.9905   74

  15   rms: 0.2026E+03   max: -.5496E+04   C at   74  2   RLX: 0.000
       a =  6.000      CL =  1.2088
      Cm = -0.1632     CD =  0.01434   =>   CDf =  0.00649    CDp =  0.00785

 Side 1  free  transition at x/c =  0.4976   62
 Side 2  free  transition at x/c =  0.9978   74

  16   rms: 0.3763E+03   max: 0.1021E+05   C at   74  2   RLX: 0.000
       a =  6.000      CL =  1.2077
      Cm = -0.1630     CD =  0.01434   =>   CDf =  0.00649    CDp =  0.00785

 Side 1  free  transition at x/c =  0.4977   62
 Side 2  free  transition at x/c =  0.9798   73

  17   rms: 0.7578E+02   max: -.1475E+04   C at   73  2   RLX: 0.000
       a =  6.000      CL =  1.2078
      Cm = -0.1630     CD =  0.01434   =>   CDf =  0.00649    CDp =  0.00785

 Side 1  free  transition at x/c =  0.4976   62
 Side 2  free  transition at x/c =  0.9901   74

  18   rms: 0.1839E+03   max: -.4986E+04   C at   74  2   RLX: 0.000
       a =  6.000      CL =  1.2081
      Cm = -0.1631     CD =  0.01434   =>   CDf =  0.00649    CDp =  0.00784

 Side 1  free  transition at x/c =  0.4976   62
 Side 2  free  transition at x/c =  0.9975   74

  19   rms: 0.4469E+03   max: 0.1212E+05   C at   74  2   RLX: 0.000
       a =  6.000      CL =  1.2071
      Cm = -0.1628     CD =  0.01434   =>   CDf =  0.00649    CDp =  0.00785

 Side 1  free  transition at x/c =  0.4977   62
 Side 2  free  transition at x/c =  0.9791   73

  20   rms: 0.7470E+02   max: -.1455E+04   C at   73  2   RLX: 0.000
       a =  6.000      CL =  1.2072
      Cm = -0.1628     CD =  0.01434   =>   CDf =  0.00649    CDp =  0.00784

 Side 1  free  transition at x/c =  0.4976   62
 Side 2  free  transition at x/c =  0.9895   74

  21   rms: 0.1612E+03   max: -.4372E+04   C at   74  2   RLX: 0.000
       a =  6.000      CL =  1.2074
      Cm = -0.1629     CD =  0.01433   =>   CDf =  0.00649    CDp =  0.00784

 Side 1  free  transition at x/c =  0.4976   62
 Side 2  free  transition at x/c =  0.9971   74

  22   rms: 0.5662E+03   max: 0.1536E+05   C at   74  2   RLX: 0.000
       a =  6.000      CL =  1.2064
      Cm = -0.1627     CD =  0.01434   =>   CDf =  0.00649    CDp =  0.00784

 Side 1  free  transition at x/c =  0.4976   62
 Side 2  free  transition at x/c =  0.9782   73

  23   rms: 0.7310E+02   max: -.1424E+04   C at   73  2   RLX: 0.000
       a =  6.000      CL =  1.2065
      Cm = -0.1627     CD =  0.01433   =>   CDf =  0.00649    CDp =  0.00784

 Side 1  free  transition at x/c =  0.4976   62
 Side 2  free  transition at x/c =  0.9888   73

  24   rms: 0.9513E+02   max: -.1845E+04   C at   73  2   RLX: 0.000
       a =  6.000      CL =  1.2066
      Cm = -0.1627     CD =  0.01433   =>   CDf =  0.00649    CDp =  0.00784

 Side 1  free  transition at x/c =  0.4976   62
 Side 2  free  transition at x/c =  0.9982   74

  25   rms: 0.4798E+03   max: 0.1301E+05   C at   74  2   RLX: 0.000
       a =  6.000      CL =  1.2056
      Cm = -0.1624     CD =  0.01433   =>   CDf =  0.00649    CDp =  0.00784
 VISCAL:  Convergence failed

 Sequence halted since previous  4 points did not converge
 Last-converged  alpha =   2.000    CL =   1.14132

.OPERva   c>  
 XFOIL   c>  
0.1
resp: 
 ===================================================
  XFOIL Version 6.97
  Copyright (C) 2000   Mark Drela, Harold Youngren

  This software comes with ABSOLUTELY NO WARRANTY,
    subject to the GNU General Public License.

  Caveat computor
 ===================================================

 File  xfoil.def  not found

   QUIT    Exit program

  .OPER    Direct operating point(s)
  .MDES    Complex mapping design routine
  .QDES    Surface speed design routine
  .GDES    Geometry design routine

   SAVE f  Write airfoil to labeled coordinate file
   PSAV f  Write airfoil to plain coordinate file
   ISAV f  Write airfoil to ISES coordinate file
   MSAV f  Write airfoil to MSES coordinate file
   REVE    Reverse written-airfoil node ordering
   DELI i  Change written-airfoil file delimiters

   LOAD f  Read buffer airfoil from coordinate file
   NACA i  Set NACA 4,5-digit airfoil and buffer airfoil
   INTE    Set buffer airfoil by interpolating two airfoils
   NORM    Buffer airfoil normalization toggle
   HALF    Halve the number of points in buffer airfoil
   XYCM rr Change CM reference location, currently  0.25000 0.00000

   BEND    Display structural properties of current airfoil

   PCOP    Set current-airfoil panel nodes directly from buffer airfoil points
   PANE    Set current-airfoil panel nodes ( 160 ) based on curvature
  .PPAR    Show/change paneling

  .PLOP    Plotting options

   WDEF f  Write  current-settings file
   RDEF f  Reread current-settings file
   NAME s  Specify new airfoil name
   NINC    Increment name version number

   Z       Zoom    | (available in all menus)
   U       Unzoom  | 

 XFOIL   c>   ...............................................

  G raphics-enable flag:        T
  S ize of plot object          10.00"
  A spect ratio of plot object   0.5500
  P age dimensions              11.00 x  8.50"
  M argins from page edges       0.00",  0.00"
  F ont size (relative)          0.0150
  W indow/screen size fraction   0.8000
  B lowup input method:        Cursor    
  O rientation of plot:        Landscape 
  C olor PostScript output?     F

      Option, Value   (or <Return>)    c>   ...............................................

  G raphics-enable flag:        F
  S ize of plot object          10.00"
  A spect ratio of plot object   0.5500
  P age dimensions              11.00 x  8.50"
  M argins from page edges       0.00",  0.00"
  F ont size (relative)          0.0150
  W indow/screen size fraction   0.8000
  B lowup input method:        Cursor    
  O rientation of plot:        Landscape 
  C olor PostScript output?     F

      Option, Value   (or <Return>)    c>  
 XFOIL   c>  
 Labeled airfoil file.  Name:  000297                                          

 Number of input coordinate points: 200
 Clockwise ordering
 Max thickness =     0.164793  at x =   0.259
 Max camber    =     0.083638  at x =   0.375

  LE  x,y  =  -0.00002   0.00121  |   Chord =   0.99990
  TE  x,y  =   0.99988   0.00004  |

 Current airfoil nodes set from buffer airfoil nodes ( 200 )

 XFOIL   c>  
 You are working with the buffer airfoil

.GDES   c>  
  i       x        y      angle
   2   0.9990   0.0003    0.037
   3   0.9978   0.0008    0.015
   4   0.9961   0.0014    0.008
   5   0.9938   0.0021   -0.008
   6   0.9911   0.0031    0.005
   7   0.9880   0.0042    0.017
   8   0.9843   0.0054   -0.004
   9   0.9801   0.0069    0.022
  10   0.9755   0.0085    0.011
  11   0.9704   0.0102    0.020
  12   0.9649   0.0121    0.011
  13   0.9589   0.0142    0.015
  14   0.9524   0.0164    0.024
  15   0.9455   0.0188    0.021
  16   0.9382   0.0213    0.029
  17   0.9304   0.0240    0.030
  18   0.9222   0.0268    0.034
  19   0.9135   0.0298    0.042
  20   0.9045   0.0328    0.042
  21   0.8951   0.0361    0.052
  22   0.8853   0.0394    0.060
  23   0.8751   0.0428    0.065
  24   0.8645   0.0464    0.075
  25   0.8536   0.0501    0.076
  26   0.8423   0.0538    0.098
  27   0.8307   0.0577    0.104
  28   0.8187   0.0616    0.116
  29   0.8065   0.0656    0.129
  30   0.7939   0.0697    0.142
  31   0.7810   0.0738    0.165
  32   0.7679   0.0780    0.175
  33   0.7545   0.0823    0.197
  34   0.7409   0.0865    0.219
  35   0.7270   0.0908    0.233
  36   0.7129   0.0951    0.261
  37   0.6986   0.0993    0.285
  38   0.6841   0.1036    0.309
  39   0.6694   0.1078    0.333
  40   0.6545   0.1120    0.366
  41   0.6395   0.1161    0.392
  42   0.6243   0.1201    0.423
  43   0.6091   0.1241    0.458
  44   0.5937   0.1279    0.490
  45   0.5782   0.1317    0.521
  46   0.5627   0.1353    0.561
  47   0.5471   0.1387    0.595
  48   0.5314   0.1420    0.633
  49   0.5157   0.1452    0.668
  50   0.5000   0.1481    0.710
  51   0.4843   0.1508    0.747
  52   0.4686   0.1533    0.786
  53   0.4529   0.1556    0.829
  54   0.4373   0.1577    0.870
  55   0.4218   0.1595    0.901
  56   0.4063   0.1611    0.952
  57   0.3909   0.1623    0.981
  58   0.3757   0.1634    1.025
  59   0.3605   0.1641    1.064
  60   0.3455   0.1645    1.096
  61   0.3306   0.1647    1.139
  62   0.3159   0.1646    1.167
  63   0.3014   0.1641    1.206
  64   0.2871   0.1634    1.237
  65   0.2730   0.1624    1.271
  66   0.2591   0.1611    1.298
  67   0.2455   0.1595    1.336
  68   0.2321   0.1576    1.356
  69   0.2190   0.1554    1.396
  70   0.2061   0.1530    1.416
  71   0.1935   0.1503    1.454
  72   0.1813   0.1473    1.477
  73   0.1693   0.1441    1.511
  74   0.1577   0.1406    1.546
  75   0.1464   0.1369    1.576
  76   0.1355   0.1330    1.620
  77   0.1249   0.1288    1.662
  78   0.1147   0.1245    1.710
  79   0.1049   0.1199    1.764
  80   0.0955   0.1152    1.817
  81   0.0865   0.1104    1.890
  82   0.0778   0.1053    1.966
  83   0.0696   0.1002    2.053
  84   0.0618   0.0949    2.148
  85   0.0545   0.0895    2.255
  86   0.0476   0.0839    2.394
  87   0.0411   0.0783    2.510
  88   0.0351   0.0726    2.673
  89   0.0296   0.0668    2.836
  90   0.0245   0.0609    3.012
  91   0.0199   0.0550    3.211
  92   0.0157   0.0490    3.416
  93   0.0120   0.0430    3.604
  94   0.0089   0.0369    3.833
  95   0.0062   0.0308    4.014
  96   0.0039   0.0247    4.195
  97   0.0022   0.0185    4.357
  98   0.0010   0.0124    4.466
  99   0.0002   0.0062    4.542
 100   0.0000   0.0000    7.996
 101   0.0002  -0.0025   11.131
 102   0.0010  -0.0049   10.392
 103   0.0022  -0.0073    9.409
 104   0.0039  -0.0096    8.283
 105   0.0062  -0.0118    7.242
 106   0.0089  -0.0139    6.301
 107   0.0120  -0.0159    5.446
 108   0.0157  -0.0177    4.777
 109   0.0199  -0.0193    4.154
 110   0.0245  -0.0207    3.641
 111   0.0296  -0.0220    3.195
 112   0.0351  -0.0230    2.805
 113   0.0411  -0.0238    2.458
 114   0.0476  -0.0243    2.150
 115   0.0545  -0.0247    1.894
 116   0.0618  -0.0248    1.632
 117   0.0696  -0.0247    1.419
 118   0.0778  -0.0244    1.214
 119   0.0865  -0.0240    1.028
 120   0.0955  -0.0233    0.858
 121   0.1049  -0.0224    0.704
 122   0.1147  -0.0214    0.567
 123   0.1249  -0.0203    0.430
 124   0.1355  -0.0190    0.315
 125   0.1464  -0.0176    0.207
 126   0.1577  -0.0162    0.108
 127   0.1693  -0.0147    0.015
 128   0.1813  -0.0131   -0.061
 129   0.1935  -0.0115   -0.132
 130   0.2061  -0.0099   -0.194
 131   0.2190  -0.0083   -0.248
 132   0.2321  -0.0067   -0.289
 133   0.2455  -0.0052   -0.332
 134   0.2591  -0.0037   -0.355
 135   0.2730  -0.0022   -0.378
 136   0.2871  -0.0009   -0.390
 137   0.3014   0.0004   -0.402
 138   0.3159   0.0016   -0.399
 139   0.3306   0.0027   -0.398
 140   0.3455   0.0037   -0.381
 141   0.3605   0.0046   -0.371
 142   0.3757   0.0055   -0.347
 143   0.3909   0.0062   -0.328
 144   0.4063   0.0069   -0.303
 145   0.4218   0.0075   -0.268
 146   0.4373   0.0080   -0.250
 147   0.4529   0.0084   -0.210
 148   0.4686   0.0088   -0.182
 149   0.4843   0.0092   -0.154
 150   0.5000   0.0095   -0.124
 151   0.5157   0.0098   -0.094
 152   0.5314   0.0100   -0.068
 153   0.5471   0.0102   -0.049
 154   0.5627   0.0104   -0.023
 155   0.5782   0.0106   -0.011
 156   0.5937   0.0108    0.004
 157   0.6091   0.0110    0.017
 158   0.6243   0.0112    0.021
 159   0.6395   0.0115    0.019
 160   0.6545   0.0117    0.024
 161   0.6694   0.0119    0.013
 162   0.6841   0.0121    0.007
 163   0.6986   0.0123   -0.012
 164   0.7129   0.0125   -0.028
 165   0.7270   0.0127   -0.053
 166   0.7409   0.0129   -0.071
 167   0.7545   0.0131   -0.098
 168   0.7679   0.0132   -0.132
 169   0.7810   0.0133   -0.164
 170   0.7939   0.0134   -0.189
 171   0.8065   0.0134   -0.227
 172   0.8187   0.0134   -0.262
 173   0.8307   0.0133   -0.297
 174   0.8423   0.0131   -0.325
 175   0.8536   0.0129   -0.357
 176   0.8645   0.0127   -0.393
 177   0.8751   0.0124   -0.417
 178   0.8853   0.0120   -0.445
 179   0.8951   0.0115   -0.460
 180   0.9045   0.0110   -0.490
 181   0.9135   0.0105   -0.499
 182   0.9222   0.0098   -0.505
 183   0.9304   0.0092   -0.519
 184   0.9382   0.0085   -0.514
 185   0.9455   0.0078   -0.518
 186   0.9524   0.0070   -0.500
 187   0.9589   0.0063   -0.503
 188   0.9649   0.0055   -0.471
 189   0.9704   0.0048   -0.452
 190   0.9755   0.0041   -0.442
 191   0.9801   0.0034   -0.376
 192   0.9843   0.0027   -0.393
 193   0.9880   0.0021   -0.303
 194   0.9911   0.0016   -0.287
 195   0.9938   0.0011   -0.266
 196   0.9961   0.0007   -0.170
 197   0.9978   0.0004   -0.149
 198   0.9990   0.0002   -0.124
 199   0.9998   0.0000    0.014

 Maximum panel corner angle = 11.131   at  i,x,y  = 101   0.0002  -0.0025

 Enter corner angle criterion for refinement (deg):   5.565
 Enter type of spline parameter (1=uniform, 2=arclength):   1
 Enter refinement x limits:  -0.10000   1.10000
 Number of points added:           14
 Max thickness =     0.164771  at x =   0.259
 Max camber    =     0.084448  at x =   0.376

 Maximum panel corner angle =  6.160   at  i,x,y  = 103   0.0001  -0.0019

.GDES   c>  
 Buffer airfoil is not identical to current airfoil

 XFOIL   c>  
 Blunt trailing edge.  Gap =  0.00026

 Paneling parameters used...
   Number of panel nodes       160
   Panel bunching parameter    1.000
   TE/LE panel density ratio   0.150
   Refined-area/LE panel density ratio    0.200
   Top    side refined area x/c limits  1.000 1.000
   Bottom side refined area x/c limits  1.000 1.000

 XFOIL   c>  
.OPERi   c>   Current iteration limit:          20

Enter new iteration limit   i>  
Enter new iteration limit   i>  
Enter new iteration limit   i>  
.OPERi   c>  
 M  =    0.0000
 Re =  0.3000E+06

.OPERv   c>  
 Sonic Cp =    -66.86      Sonic Q/Qinf =     9.138


.OPERv   c>  
 Polar  1 newly created for accumulation
 Airfoil archived with polar: 000297                                          

Enter  polar save filename  OR  <return> for no file   s>  
 New polar save file available

Enter  polar dump filename  OR  <return> for no file   s>  
 Polar dump file will NOT be written

 Polar accumulation enabled

.OPERva   c>   Calculating unit vorticity distributions ...
 Calculating wake trajectory ...
 Calculating source influence matrix ...

 Solving BL system ...

 Initializing BL ...
    side            1  ...
 MRCHUE: Inverse mode at  55     Hk =   4.263
 MRCHUE: Inverse mode at  56     Hk =   5.076
 MRCHUE: Inverse mode at  57     Hk =   5.876
 MRCHUE: Inverse mode at  58     Hk =   6.667
 MRCHUE: Inverse mode at  59     Hk =   7.455
 MRCHUE: Inverse mode at  60     Hk =   8.240
 MRCHUE: Inverse mode at  61     Hk =   9.026
 MRCHUE: Inverse mode at  62     Hk =   6.532
 MRCHUE: Inverse mode at  63     Hk =   4.021
 MRCHUE: Inverse mode at  64     Hk =   2.500
 MRCHUE: Convergence failed at  88  side 1    Res =  0.1685E+02
    side            2  ...
 MRCHUE: Inverse mode at  31     Hk =   4.293
 MRCHUE: Inverse mode at  32     Hk =   5.044
 MRCHUE: Inverse mode at  33     Hk =   5.823
 MRCHUE: Inverse mode at  34     Hk =   6.627
 MRCHUE: Inverse mode at  35     Hk =   7.449
 MRCHUE: Inverse mode at  36     Hk =   8.281
 MRCHUE: Inverse mode at  37     Hk =   9.114
 MRCHUE: Inverse mode at  38     Hk =   7.543
 MRCHUE: Inverse mode at  39     Hk =   4.558
 MRCHUE: Inverse mode at  40     Hk =   2.839
 MRCHUE: Inverse mode at  74     Hk =   2.500

 MRCHDU: Convergence failed at  88  side 1    Res =  0.2650E+02
 Side 1  free  transition at x/c =  0.4875   62
 Side 2  free  transition at x/c =  0.2545   38

   1   rms: 0.3863E+00   max: -.1620E+01   D at   74  2   RLX: 0.309
       a =  2.000      CL =  1.1673
      Cm = -0.1718     CD =  0.01081   =>   CDf =  0.00853    CDp =  0.00228

 Side 1  free  transition at x/c =  0.4940   61
 Side 2  free  transition at x/c =  0.2470   39

   2   rms: 0.2036E+00   max: -.1300E+01   D at   75  2   RLX: 0.384
       a =  2.000      CL =  1.0976
      Cm = -0.1576     CD =  0.01260   =>   CDf =  0.00833    CDp =  0.00426

 Side 1  free  transition at x/c =  0.5013   62
 Side 2  free  transition at x/c =  0.2453   39

   3   rms: 0.1105E+00   max: -.1018E+01   D at   75  2   RLX: 0.491
       a =  2.000      CL =  1.0769
      Cm = -0.1540     CD =  0.01330   =>   CDf =  0.00843    CDp =  0.00487

 Side 1  free  transition at x/c =  0.5065   61
 Side 2  free  transition at x/c =  0.2460   40

   4   rms: 0.1483E+00   max: -.2206E+01   D at    2  2   RLX: 0.227
       a =  2.000      CL =  1.0881
      Cm = -0.1565     CD =  0.01407   =>   CDf =  0.00796    CDp =  0.00611

 Side 1  free  transition at x/c =  0.5076   62
 Side 2  free  transition at x/c =  0.2494   39

   5   rms: 0.1478E+00   max: -.2320E+01   T at    2  1   RLX: 0.215
       a =  2.000      CL =  1.0988
      Cm = -0.1589     CD =  0.01435   =>   CDf =  0.00808    CDp =  0.00627

 Side 1  free  transition at x/c =  0.5083   62
 Side 2  free  transition at x/c =  0.2526   39

   6   rms: 0.5135E-01   max: -.3220E+00   D at   75  2
       a =  2.000      CL =  1.1416
      Cm = -0.1685     CD =  0.01535   =>   CDf =  0.00805    CDp =  0.00731

 Side 1  free  transition at x/c =  0.5112   62
 Side 2  free  transition at x/c =  0.2662   40

   7   rms: 0.1794E-01   max: -.1639E+00   T at   40  2
       a =  2.000      CL =  1.1465
      Cm = -0.1696     CD =  0.01535   =>   CDf =  0.00796    CDp =  0.00739

 Side 1  free  transition at x/c =  0.5108   62
 Side 2  free  transition at x/c =  0.2729   40

   8   rms: 0.1458E-02   max: -.2561E-01   D at   41  2
       a =  2.000      CL =  1.1465
      Cm = -0.1695     CD =  0.01537   =>   CDf =  0.00790    CDp =  0.00747

 Side 1  free  transition at x/c =  0.5108   62
 Side 2  free  transition at x/c =  0.2723   40

   9   rms: 0.1103E-04   max: -.1879E-03   D at   41  2
       a =  2.000      CL =  1.1465
      Cm = -0.1695     CD =  0.01537   =>   CDf =  0.00790    CDp =  0.00747

 Point added to stored polar  1
 Point written to save file  000297M0.1.log                                  
 Dump file unspecified or not available
 Calculating wake trajectory ...
 Calculating source influence matrix ...

 Solving BL system ...

 Side 1  free  transition at x/c =  0.5108   62
 Side 2  free  transition at x/c =  0.2723   40

   1   rms: 0.1998E+00   max: -.1388E+01   C at   40  2   RLX: 0.360
       a =  3.000      CL =  1.1871
      Cm = -0.1699     CD =  0.01541   =>   CDf =  0.00792    CDp =  0.00749

 Side 1  free  transition at x/c =  0.5036   62
 Side 2  free  transition at x/c =  0.3080   42

   2   rms: 0.1919E+00   max: -.1694E+01   C at   42  2   RLX: 0.295
       a =  3.000      CL =  1.2102
      Cm = -0.1704     CD =  0.01553   =>   CDf =  0.00775    CDp =  0.00778

 Side 1  free  transition at x/c =  0.5008   63
 Side 2  free  transition at x/c =  0.3335   42

   3   rms: 0.1822E+00   max: -.2362E+01   C at   42  2   RLX: 0.212
       a =  3.000      CL =  1.2235
      Cm = -0.1709     CD =  0.01567   =>   CDf =  0.00790    CDp =  0.00777

 Side 1  free  transition at x/c =  0.4994   62
 Side 2  free  transition at x/c =  0.3502   43

   4   rms: 0.1968E+00   max: -.2651E+01   C at   43  2   RLX: 0.189
       a =  3.000      CL =  1.2322
      Cm = -0.1713     CD =  0.01561   =>   CDf =  0.00790    CDp =  0.00772

 Side 1  free  transition at x/c =  0.4983   62
 Side 2  free  transition at x/c =  0.3673   44

   5   rms: 0.2112E+00   max: -.2931E+01   C at   44  2   RLX: 0.171
       a =  3.000      CL =  1.2387
      Cm = -0.1716     CD =  0.01559   =>   CDf =  0.00784    CDp =  0.00775

 Side 1  free  transition at x/c =  0.4975   62
 Side 2  free  transition at x/c =  0.3922   45

   6   rms: 0.3220E+00   max: -.5935E+01   C at   45  2   RLX: 0.084
       a =  3.000      CL =  1.2420
      Cm = -0.1719     CD =  0.01559   =>   CDf =  0.00774    CDp =  0.00785

 Side 1  free  transition at x/c =  0.4971   62
 Side 2  free  transition at x/c =  0.4051   45

   7   rms: 0.1065E+00   max: -.1071E+01   T at   45  2   RLX: 0.467
       a =  3.000      CL =  1.2524
      Cm = -0.1718     CD =  0.01552   =>   CDf =  0.00770    CDp =  0.00782

 Side 1  free  transition at x/c =  0.4951   62
 Side 2 forced transition at x/c =  1.0001   74

   8   rms: 0.4987E-01   max: 0.4558E+00   C at   74  2
       a =  3.000      CL =  1.2443
      Cm = -0.1668     CD =  0.01464   =>   CDf =  0.00645    CDp =  0.00819

 Side 1  free  transition at x/c =  0.4935   62
 Side 2 forced transition at x/c =  1.0001   74

   9   rms: 0.5075E-02   max: -.3529E-01   D at   71  2
       a =  3.000      CL =  1.2419
      Cm = -0.1662     CD =  0.01460   =>   CDf =  0.00650    CDp =  0.00810

 Side 1  free  transition at x/c =  0.4936   62
 Side 2 forced transition at x/c =  1.0001   74

  10   rms: 0.1239E-03   max: -.6881E-03   D at   71  2
       a =  3.000      CL =  1.2418
      Cm = -0.1662     CD =  0.01460   =>   CDf =  0.00648    CDp =  0.00812

 Side 1  free  transition at x/c =  0.4936   62
 Side 2 forced transition at x/c =  1.0001   74

  11   rms: 0.8409E-06   max: 0.1177E-04   C at   74  2
       a =  3.000      CL =  1.2418
      Cm = -0.1662     CD =  0.01460   =>   CDf =  0.00648    CDp =  0.00812

 Point added to stored polar  1
 Point written to save file  000297M0.1.log                                  
 Dump file unspecified or not available
 Calculating wake trajectory ...
 Calculating source influence matrix ...

 Solving BL system ...

 Side 1  free  transition at x/c =  0.4936   62
 Side 2 forced transition at x/c =  1.0001   74

   1   rms: 0.1762E+00   max: -.4775E+00   n at   72  2
       a =  4.000      CL =  1.3522
      Cm = -0.1665     CD =  0.01543   =>   CDf =  0.00635    CDp =  0.00907

 Side 1  free  transition at x/c =  0.4757   62
 Side 2 forced transition at x/c =  1.0001   73

   2   rms: 0.2284E-01   max: -.1986E+00   D at   62  1
       a =  4.000      CL =  1.3527
      Cm = -0.1666     CD =  0.01553   =>   CDf =  0.00681    CDp =  0.00871

 Side 1  free  transition at x/c =  0.4764   62
 Side 2 forced transition at x/c =  1.0001   73

   3   rms: 0.1423E-02   max: 0.9631E-02   D at   62  1
       a =  4.000      CL =  1.3525
      Cm = -0.1666     CD =  0.01556   =>   CDf =  0.00673    CDp =  0.00883

 Side 1  free  transition at x/c =  0.4760   62
 Side 2 forced transition at x/c =  1.0001   73

   4   rms: 0.1828E-04   max: -.2214E-03   C at   73  2
       a =  4.000      CL =  1.3525
      Cm = -0.1666     CD =  0.01556   =>   CDf =  0.00674    CDp =  0.00883

 Point added to stored polar  1
 Point written to save file  000297M0.1.log                                  
 Dump file unspecified or not available
 Calculating wake trajectory ...
 Calculating source influence matrix ...

 Solving BL system ...

 Side 1  free  transition at x/c =  0.4760   62
 Side 2 forced transition at x/c =  1.0001   73

   1   rms: 0.1473E+00   max: -.3545E+00   C at   73  2
       a =  5.000      CL =  1.4580
      Cm = -0.1664     CD =  0.01652   =>   CDf =  0.00659    CDp =  0.00993

 Side 1  free  transition at x/c =  0.4577   62
 Side 2 forced transition at x/c =  1.0001   72

   2   rms: 0.2272E-01   max: -.1999E+00   D at   62  1
       a =  5.000      CL =  1.4595
      Cm = -0.1666     CD =  0.01660   =>   CDf =  0.00698    CDp =  0.00962

 Side 1  free  transition at x/c =  0.4588   62
 Side 2 forced transition at x/c =  1.0001   72

   3   rms: 0.1733E-02   max: -.1319E-01   C at   72  2
       a =  5.000      CL =  1.4593
      Cm = -0.1665     CD =  0.01665   =>   CDf =  0.00690    CDp =  0.00975

 Side 1  free  transition at x/c =  0.4584   62
 Side 2 forced transition at x/c =  1.0001   72

   4   rms: 0.2225E-04   max: -.2532E-03   C at   72  2
       a =  5.000      CL =  1.4593
      Cm = -0.1665     CD =  0.01665   =>   CDf =  0.00690    CDp =  0.00975

 Point added to stored polar  1
 Point written to save file  000297M0.1.log                                  
 Dump file unspecified or not available
 Calculating wake trajectory ...
 Calculating source influence matrix ...

 Solving BL system ...

 Side 1  free  transition at x/c =  0.4584   62
 Side 2 forced transition at x/c =  1.0001   72

   1   rms: 0.1402E+00   max: -.3478E+00   C at   72  2
       a =  6.000      CL =  1.5586
      Cm = -0.1655     CD =  0.01775   =>   CDf =  0.00656    CDp =  0.01119

 Side 1  free  transition at x/c =  0.4401   63
 Side 2 forced transition at x/c =  1.0001   70

   2   rms: 0.2543E-01   max: -.1882E+00   D at   63  1
       a =  6.000      CL =  1.5610
      Cm = -0.1658     CD =  0.01781   =>   CDf =  0.00707    CDp =  0.01074

 Side 1  free  transition at x/c =  0.4413   63
 Side 2 forced transition at x/c =  1.0001   70

   3   rms: 0.2019E-02   max: -.1233E-01   C at   70  2
       a =  6.000      CL =  1.5610
      Cm = -0.1658     CD =  0.01787   =>   CDf =  0.00699    CDp =  0.01089

 Side 1  free  transition at x/c =  0.4409   63
 Side 2 forced transition at x/c =  1.0001   70

   4   rms: 0.2903E-04   max: -.2328E-03   C at   70  2
       a =  6.000      CL =  1.5610
      Cm = -0.1658     CD =  0.01787   =>   CDf =  0.00699    CDp =  0.01088

 Point added to stored polar  1
 Point written to save file  000297M0.1.log                                  
 Dump file unspecified or not available
 Calculating wake trajectory ...
 Calculating source influence matrix ...

 Solving BL system ...

 Side 1  free  transition at x/c =  0.4409   63
 Side 2 forced transition at x/c =  1.0001   70

   1   rms: 0.1362E+00   max: -.3458E+00   C at   70  2
       a =  7.000      CL =  1.6514
      Cm = -0.1635     CD =  0.01918   =>   CDf =  0.00680    CDp =  0.01238

 Side 1  free  transition at x/c =  0.4223   63
 Side 2 forced transition at x/c =  1.0001   69

   2   rms: 0.3400E-01   max: -.1879E+00   D at   63  1
       a =  7.000      CL =  1.6551
      Cm = -0.1640     CD =  0.01917   =>   CDf =  0.00711    CDp =  0.01206

 Side 1  free  transition at x/c =  0.4239   63
 Side 2 forced transition at x/c =  1.0001   69

   3   rms: 0.1410E-02   max: 0.1076E-01   T at   63  1
       a =  7.000      CL =  1.6555
      Cm = -0.1641     CD =  0.01928   =>   CDf =  0.00703    CDp =  0.01226

 Side 1  free  transition at x/c =  0.4234   63
 Side 2 forced transition at x/c =  1.0001   69

   4   rms: 0.5223E-04   max: -.3135E-03   C at   69  2
       a =  7.000      CL =  1.6554
      Cm = -0.1641     CD =  0.01929   =>   CDf =  0.00703    CDp =  0.01226

 Point added to stored polar  1
 Point written to save file  000297M0.1.log                                  
 Dump file unspecified or not available
 Calculating wake trajectory ...
 Calculating source influence matrix ...

 Solving BL system ...

 Side 1  free  transition at x/c =  0.4234   63
 Side 2 forced transition at x/c =  1.0001   69

   1   rms: 0.1298E+00   max: -.3623E+00   C at   69  2
       a =  8.000      CL =  1.7335
      Cm = -0.1601     CD =  0.02091   =>   CDf =  0.00681    CDp =  0.01410

 Side 1  free  transition at x/c =  0.4049   63
 Side 2 forced transition at x/c =  1.0001   68

   2   rms: 0.3079E-01   max: -.1826E+00   D at   63  1
       a =  8.000      CL =  1.7356
      Cm = -0.1603     CD =  0.02090   =>   CDf =  0.00709    CDp =  0.01381

 Side 1  free  transition at x/c =  0.4065   63
 Side 2 forced transition at x/c =  1.0001   68

   3   rms: 0.2382E-02   max: 0.1547E-01   C at   68  2
       a =  8.000      CL =  1.7375
      Cm = -0.1607     CD =  0.02097   =>   CDf =  0.00701    CDp =  0.01396

 Side 1  free  transition at x/c =  0.4061   63
 Side 2 forced transition at x/c =  1.0001   68

   4   rms: 0.6320E-04   max: 0.5894E-03   D at   92  1
       a =  8.000      CL =  1.7374
      Cm = -0.1607     CD =  0.02097   =>   CDf =  0.00701    CDp =  0.01396

 Point added to stored polar  1
 Point written to save file  000297M0.1.log                                  
 Dump file unspecified or not available
 Calculating wake trajectory ...
 Calculating source influence matrix ...

 Solving BL system ...

 Side 1  free  transition at x/c =  0.4061   63
 Side 2 forced transition at x/c =  1.0001   68

   1   rms: 0.1238E+00   max: -.4508E+00   C at   68  2
       a =  9.000      CL =  1.7916
      Cm = -0.1533     CD =  0.02315   =>   CDf =  0.00677    CDp =  0.01638

 Side 1  free  transition at x/c =  0.3877   63
 Side 2 forced transition at x/c =  1.0001   67

   2   rms: 0.4102E-01   max: -.2059E+00   D at   78  2
       a =  9.000      CL =  1.8035
      Cm = -0.1554     CD =  0.02303   =>   CDf =  0.00703    CDp =  0.01600

 Side 1  free  transition at x/c =  0.3892   63
 Side 2 forced transition at x/c =  1.0001   67

   3   rms: 0.3286E-02   max: -.2705E-01   D at   77  2
       a =  9.000      CL =  1.8053
      Cm = -0.1557     CD =  0.02319   =>   CDf =  0.00694    CDp =  0.01625

 Side 1  free  transition at x/c =  0.3887   63
 Side 2 forced transition at x/c =  1.0001   67

   4   rms: 0.7959E-04   max: 0.5607E-03   D at   90  1
       a =  9.000      CL =  1.8053
      Cm = -0.1557     CD =  0.02320   =>   CDf =  0.00694    CDp =  0.01625

 Point added to stored polar  1
 Point written to save file  000297M0.1.log                                  
 Dump file unspecified or not available
 Calculating wake trajectory ...
 Calculating source influence matrix ...

 Solving BL system ...

 Side 1  free  transition at x/c =  0.3887   63
 Side 2 forced transition at x/c =  1.0001   67

   1   rms: 0.1241E+00   max: 0.4175E+00   T at   63  1
       a = 10.000      CL =  1.8475
      Cm = -0.1480     CD =  0.02638   =>   CDf =  0.00668    CDp =  0.01970

 Side 1  free  transition at x/c =  0.3702   63
 Side 2 forced transition at x/c =  1.0001   66

   2   rms: 0.3939E-01   max: -.1885E+00   D at   63  1
       a = 10.000      CL =  1.8594
      Cm = -0.1500     CD =  0.02613   =>   CDf =  0.00691    CDp =  0.01922

 Side 1  free  transition at x/c =  0.3718   63
 Side 2 forced transition at x/c =  1.0001   66

   3   rms: 0.4292E-02   max: -.2859E-01   D at   77  2
       a = 10.000      CL =  1.8625
      Cm = -0.1504     CD =  0.02621   =>   CDf =  0.00682    CDp =  0.01940

 Side 1  free  transition at x/c =  0.3712   63
 Side 2 forced transition at x/c =  1.0001   66

   4   rms: 0.4937E-04   max: 0.3522E-03   D at   88  1
       a = 10.000      CL =  1.8625
      Cm = -0.1504     CD =  0.02622   =>   CDf =  0.00682    CDp =  0.01940

 Point added to stored polar  1
 Point written to save file  000297M0.1.log                                  
 Dump file unspecified or not available
 Calculating wake trajectory ...
 Calculating source influence matrix ...

 Solving BL system ...

 Side 1  free  transition at x/c =  0.3712   63
 Side 2 forced transition at x/c =  1.0001   66

   1   rms: 0.1261E+00   max: 0.4219E+00   T at   63  1   RLX: 0.992
       a = 11.000      CL =  1.8935
      Cm = -0.1432     CD =  0.03075   =>   CDf =  0.00653    CDp =  0.02422

 Side 1  free  transition at x/c =  0.3526   63
 Side 2 forced transition at x/c =  1.0001   65

   2   rms: 0.3733E-01   max: -.2073E+00   D at   63  1
       a = 11.000      CL =  1.9049
      Cm = -0.1446     CD =  0.03029   =>   CDf =  0.00674    CDp =  0.02355

 Side 1  free  transition at x/c =  0.3540   63
 Side 2 forced transition at x/c =  1.0001   65

   3   rms: 0.5095E-02   max: -.2870E-01   D at   77  2
       a = 11.000      CL =  1.9089
      Cm = -0.1450     CD =  0.03032   =>   CDf =  0.00664    CDp =  0.02367

 Side 1  free  transition at x/c =  0.3534   63
 Side 2 forced transition at x/c =  1.0001   65

   4   rms: 0.9490E-04   max: 0.1416E-02   D at   87  1
       a = 11.000      CL =  1.9088
      Cm = -0.1450     CD =  0.03033   =>   CDf =  0.00665    CDp =  0.02368

 Point added to stored polar  1
 Point written to save file  000297M0.1.log                                  
 Dump file unspecified or not available
 Calculating wake trajectory ...
 Calculating source influence matrix ...

 Solving BL system ...

 Side 1  free  transition at x/c =  0.3534   63
 Side 2 forced transition at x/c =  1.0001   65

   1   rms: 0.1258E+00   max: 0.4301E+00   T at   63  1   RLX: 0.855
       a = 12.000      CL =  1.9299
      Cm = -0.1398     CD =  0.03547   =>   CDf =  0.00635    CDp =  0.02912

 Side 1  free  transition at x/c =  0.3370   63
 Side 2 forced transition at x/c =  1.0001   64

   2   rms: 0.2658E-01   max: -.1732E+00   D at   63  1
       a = 12.000      CL =  1.9367
      Cm = -0.1394     CD =  0.03613   =>   CDf =  0.00660    CDp =  0.02953

 Side 1  free  transition at x/c =  0.3356   63
 Side 2 forced transition at x/c =  1.0001   64

   3   rms: 0.7975E-02   max: -.3738E-01   D at   87  1
       a = 12.000      CL =  1.9434
      Cm = -0.1400     CD =  0.03579   =>   CDf =  0.00643    CDp =  0.02936

 Side 1  free  transition at x/c =  0.3351   63
 Side 2 forced transition at x/c =  1.0001   64

   4   rms: 0.2539E-03   max: -.1537E-02   D at   74  2
       a = 12.000      CL =  1.9436
      Cm = -0.1400     CD =  0.03581   =>   CDf =  0.00645    CDp =  0.02936

 Side 1  free  transition at x/c =  0.3351   63
 Side 2 forced transition at x/c =  1.0001   64

   5   rms: 0.6445E-05   max: 0.6796E-04   C at   64  2
       a = 12.000      CL =  1.9436
      Cm = -0.1400     CD =  0.03581   =>   CDf =  0.00645    CDp =  0.02936

 Point added to stored polar  1
 Point written to save file  000297M0.1.log                                  
 Dump file unspecified or not available
 Calculating wake trajectory ...
 Calculating source influence matrix ...

 Solving BL system ...

 Side 1  free  transition at x/c =  0.3351   63
 Side 2 forced transition at x/c =  1.0001   64

   1   rms: 0.1240E+00   max: 0.4300E+00   T at   63  1   RLX: 0.740
       a = 13.000      CL =  1.9574
      Cm = -0.1363     CD =  0.04140   =>   CDf =  0.00612    CDp =  0.03528

 Side 1  free  transition at x/c =  0.3206   63
 Side 2 forced transition at x/c =  1.0001   63

   2   rms: 0.3260E-01   max: -.1858E+00   C at   63  1
       a = 13.000      CL =  1.9558
      Cm = -0.1348     CD =  0.04370   =>   CDf =  0.00641    CDp =  0.03729

 Side 1  free  transition at x/c =  0.3165   63
 Side 2 forced transition at x/c =  1.0001   63

   3   rms: 0.1270E-01   max: -.6505E-01   D at   85  1
       a = 13.000      CL =  1.9659
      Cm = -0.1354     CD =  0.04280   =>   CDf =  0.00621    CDp =  0.03659

 Side 1  free  transition at x/c =  0.3164   63
 Side 2 forced transition at x/c =  1.0001   63

   4   rms: 0.7429E-03   max: -.4033E-02   D at   74  2
       a = 13.000      CL =  1.9665
      Cm = -0.1354     CD =  0.04285   =>   CDf =  0.00622    CDp =  0.03663

 Side 1  free  transition at x/c =  0.3164   63
 Side 2 forced transition at x/c =  1.0001   63

   5   rms: 0.2015E-04   max: -.1528E-03   D at   74  2
       a = 13.000      CL =  1.9665
      Cm = -0.1354     CD =  0.04286   =>   CDf =  0.00622    CDp =  0.03663

 Point added to stored polar  1
 Point written to save file  000297M0.1.log                                  
 Dump file unspecified or not available
 Calculating wake trajectory ...
 Calculating source influence matrix ...

 Solving BL system ...

 Side 1  free  transition at x/c =  0.3164   63
 Side 2 forced transition at x/c =  1.0001   63

   1   rms: 0.1218E+00   max: 0.4384E+00   D at   82  1   RLX: 0.643
       a = 14.000      CL =  1.9749
      Cm = -0.1330     CD =  0.04874   =>   CDf =  0.00588    CDp =  0.04286

 Side 1  free  transition at x/c =  0.3036   63
 Side 2 forced transition at x/c =  1.0001   62

   2   rms: 0.4744E-01   max: -.2152E+00   C at   63  1
       a = 14.000      CL =  1.9632
      Cm = -0.1313     CD =  0.05348   =>   CDf =  0.00620    CDp =  0.04728

 Side 1  free  transition at x/c =  0.2958   63
 Side 2 forced transition at x/c =  1.0001   62

   3   rms: 0.1823E-01   max: -.1128E+00   D at   84  1
       a = 14.000      CL =  1.9751
      Cm = -0.1316     CD =  0.05185   =>   CDf =  0.00603    CDp =  0.04582

 Side 1  free  transition at x/c =  0.2965   63
 Side 2 forced transition at x/c =  1.0001   62

   4   rms: 0.2747E-02   max: -.1053E-01   D at   75  2
       a = 14.000      CL =  1.9774
      Cm = -0.1317     CD =  0.05180   =>   CDf =  0.00601    CDp =  0.04579

 Side 1  free  transition at x/c =  0.2964   63
 Side 2 forced transition at x/c =  1.0001   62

   5   rms: 0.1341E-03   max: -.8533E-03   D at   74  2
       a = 14.000      CL =  1.9776
      Cm = -0.1317     CD =  0.05182   =>   CDf =  0.00602    CDp =  0.04579

 Side 1  free  transition at x/c =  0.2964   63
 Side 2 forced transition at x/c =  1.0001   62

   6   rms: 0.6074E-05   max: 0.7247E-04   C at   62  2
       a = 14.000      CL =  1.9776
      Cm = -0.1317     CD =  0.05182   =>   CDf =  0.00602    CDp =  0.04580

 Point added to stored polar  1
 Point written to save file  000297M0.1.log                                  
 Dump file unspecified or not available
 Calculating wake trajectory ...
 Calculating source influence matrix ...

 Solving BL system ...

 Side 1  free  transition at x/c =  0.2964   63
 Side 2 forced transition at x/c =  1.0001   62

   1   rms: 0.1181E+00   max: -.4690E+00   D at   64  1   RLX: 0.571
       a = 15.000      CL =  1.9904
      Cm = -0.1303     CD =  0.0Got result {'DD': 0.01526, 'Dmin': 0.0146, 'LL': -1.1413}
Completed successfully in 2.03 seconds. [{'DD': 0.01526, 'Dmin': 0.0146, 'LL': -1.1413}]
5687   =>   CDf =  0.00567    CDp =  0.05120

 Side 1  free  transition at x/c =  0.2849   63
 Side 2 forced transition at x/c =  1.0001   61

   2   rms: 0.6656E-01   max: 0.3245E+00   D at   82  1
       a = 15.000      CL =  1.9632
      Cm = -0.1293     CD =  0.06531   =>   CDf =  0.00596    CDp =  0.05936

 Side 1  free  transition at x/c =  0.2743   62
 Side 2 forced transition at x/c =  1.0001   61

   3   rms: 0.2209E-01   max: -.1579E+00   D at   83  1
       a = 15.000      CL =  1.9752
      Cm = -0.1288     CD =  0.06256   =>   CDf =  0.00590    CDp =  0.05666

 Side 1  free  transition at x/c =  0.2750   62
 Side 2 forced transition at x/c =  1.0001   61

   4   rms: 0.3570E-02   max: -.1482E-01   D at   74  2
       a = 15.000      CL =  1.9784
      Cm = -0.1290     CD =  0.06263   =>   CDf =  0.00587    CDp =  0.05676

 Side 1  free  transition at x/c =  0.2747   62
 Side 2 forced transition at x/c =  1.0001   61

   5   rms: 0.1465E-03   max: -.1190E-02   D at   74  2
       a = 15.000      CL =  1.9785
      Cm = -0.1291     CD =  0.06266   =>   CDf =  0.00588    CDp =  0.05679

 Side 1  free  transition at x/c =  0.2747   62
 Side 2 forced transition at x/c =  1.0001   61

   6   rms: 0.8025E-05   max: 0.8122E-04   C at   61  2
       a = 15.000      CL =  1.9785
      Cm = -0.1291     CD =  0.06266   =>   CDf =  0.00588    CDp =  0.05679

 Point added to stored polar  1
 Point written to save file  000297M0.1.log                                  
 Dump file unspecified or not available

.OPERva   c>  
 XFOIL   c>  
