Job launching after 0.33 seconds in submission.
Running python job.
Changed into dir /home/simonx/Documents/Udacity/Projects/capstone/PESM_NSGA2_CST_XFoil
Importing evaluationFunctionXFoil.py
Running evaluationFunctionXFoil.main()
0
1
2
0.04
resp: 
 ===================================================
  XFOIL Version 6.97
  Copyright (C) 2000   Mark Drela, Harold Youngren

  This software comes with ABSOLUTELY NO WARRANTY,
    subject to the GNU General Public License.

  Caveat computor
 ===================================================

 File  xfoil.def  not found

   QUIT    Exit program

  .OPER    Direct operating point(s)
  .MDES    Complex mapping design routine
  .QDES    Surface speed design routine
  .GDES    Geometry design routine

   SAVE f  Write airfoil to labeled coordinate file
   PSAV f  Write airfoil to plain coordinate file
   ISAV f  Write airfoil to ISES coordinate file
   MSAV f  Write airfoil to MSES coordinate file
   REVE    Reverse written-airfoil node ordering
   DELI i  Change written-airfoil file delimiters

   LOAD f  Read buffer airfoil from coordinate file
   NACA i  Set NACA 4,5-digit airfoil and buffer airfoil
   INTE    Set buffer airfoil by interpolating two airfoils
   NORM    Buffer airfoil normalization toggle
   HALF    Halve the number of points in buffer airfoil
   XYCM rr Change CM reference location, currently  0.25000 0.00000

   BEND    Display structural properties of current airfoil

   PCOP    Set current-airfoil panel nodes directly from buffer airfoil points
   PANE    Set current-airfoil panel nodes ( 160 ) based on curvature
  .PPAR    Show/change paneling

  .PLOP    Plotting options

   WDEF f  Write  current-settings file
   RDEF f  Reread current-settings file
   NAME s  Specify new airfoil name
   NINC    Increment name version number

   Z       Zoom    | (available in all menus)
   U       Unzoom  | 

 XFOIL   c>   ...............................................

  G raphics-enable flag:        T
  S ize of plot object          10.00"
  A spect ratio of plot object   0.5500
  P age dimensions              11.00 x  8.50"
  M argins from page edges       0.00",  0.00"
  F ont size (relative)          0.0150
  W indow/screen size fraction   0.8000
  B lowup input method:        Cursor    
  O rientation of plot:        Landscape 
  C olor PostScript output?     F

      Option, Value   (or <Return>)    c>   ...............................................

  G raphics-enable flag:        F
  S ize of plot object          10.00"
  A spect ratio of plot object   0.5500
  P age dimensions              11.00 x  8.50"
  M argins from page edges       0.00",  0.00"
  F ont size (relative)          0.0150
  W indow/screen size fraction   0.8000
  B lowup input method:        Cursor    
  O rientation of plot:        Landscape 
  C olor PostScript output?     F

      Option, Value   (or <Return>)    c>  
 XFOIL   c>  
 Labeled airfoil file.  Name:  000208                                          

 Number of input coordinate points: 200
 Clockwise ordering
 Max thickness =     0.128001  at x =   0.146
 Max camber    =     0.106241  at x =   0.484

  LE  x,y  =  -0.00000   0.00059  |   Chord =   0.99988
  TE  x,y  =   0.99988   0.00006  |

 Current airfoil nodes set from buffer airfoil nodes ( 200 )

 XFOIL   c>  
 You are working with the buffer airfoil

.GDES   c>  
  i       x        y      angle
   2   0.9990   0.0005    0.013
   3   0.9978   0.0011    0.111
   4   0.9961   0.0020    0.094
   5   0.9938   0.0031    0.145
   6   0.9911   0.0044    0.153
   7   0.9880   0.0059    0.190
   8   0.9843   0.0077    0.208
   9   0.9801   0.0097    0.233
  10   0.9755   0.0119    0.251
  11   0.9704   0.0143    0.283
  12   0.9649   0.0168    0.301
  13   0.9589   0.0196    0.311
  14   0.9524   0.0225    0.349
  15   0.9455   0.0255    0.361
  16   0.9382   0.0287    0.366
  17   0.9304   0.0321    0.400
  18   0.9222   0.0355    0.401
  19   0.9135   0.0390    0.428
  20   0.9045   0.0427    0.425
  21   0.8951   0.0464    0.450
  22   0.8853   0.0502    0.452
  23   0.8751   0.0540    0.473
  24   0.8645   0.0579    0.470
  25   0.8536   0.0618    0.480
  26   0.8423   0.0657    0.489
  27   0.8307   0.0696    0.497
  28   0.8187   0.0735    0.500
  29   0.8065   0.0774    0.501
  30   0.7939   0.0813    0.513
  31   0.7810   0.0852    0.515
  32   0.7679   0.0890    0.511
  33   0.7545   0.0927    0.521
  34   0.7409   0.0964    0.525
  35   0.7270   0.1000    0.522
  36   0.7129   0.1035    0.532
  37   0.6986   0.1070    0.532
  38   0.6841   0.1103    0.537
  39   0.6694   0.1136    0.542
  40   0.6545   0.1167    0.549
  41   0.6395   0.1197    0.553
  42   0.6243   0.1226    0.560
  43   0.6091   0.1254    0.569
  44   0.5937   0.1280    0.576
  45   0.5782   0.1305    0.584
  46   0.5627   0.1328    0.595
  47   0.5471   0.1350    0.609
  48   0.5314   0.1370    0.619
  49   0.5157   0.1389    0.633
  50   0.5000   0.1405    0.647
  51   0.4843   0.1420    0.658
  52   0.4686   0.1433    0.682
  53   0.4529   0.1444    0.693
  54   0.4373   0.1454    0.710
  55   0.4218   0.1461    0.730
  56   0.4063   0.1466    0.751
  57   0.3909   0.1470    0.772
  58   0.3757   0.1471    0.787
  59   0.3605   0.1470    0.812
  60   0.3455   0.1467    0.832
  61   0.3306   0.1462    0.860
  62   0.3159   0.1454    0.874
  63   0.3014   0.1445    0.903
  64   0.2871   0.1433    0.931
  65   0.2730   0.1419    0.946
  66   0.2591   0.1403    0.981
  67   0.2455   0.1386    1.003
  68   0.2321   0.1366    1.031
  69   0.2190   0.1343    1.062
  70   0.2061   0.1319    1.090
  71   0.1935   0.1293    1.123
  72   0.1813   0.1266    1.159
  73   0.1693   0.1236    1.192
  74   0.1577   0.1204    1.241
  75   0.1464   0.1171    1.272
  76   0.1355   0.1136    1.330
  77   0.1249   0.1100    1.383
  78   0.1147   0.1062    1.438
  79   0.1049   0.1023    1.505
  80   0.0955   0.0982    1.578
  81   0.0865   0.0940    1.663
  82   0.0778   0.0897    1.751
  83   0.0696   0.0853    1.866
  84   0.0618   0.0808    1.976
  85   0.0545   0.0761    2.112
  86   0.0476   0.0714    2.274
  87   0.0411   0.0666    2.424
  88   0.0351   0.0618    2.636
  89   0.0296   0.0569    2.833
  90   0.0245   0.0519    3.070
  91   0.0199   0.0468    3.330
  92   0.0157   0.0417    3.613
  93   0.0120   0.0366    3.882
  94   0.0089   0.0314    4.206
  95   0.0062   0.0262    4.484
  96   0.0039   0.0210    4.763
  97   0.0022   0.0158    5.018
  98   0.0010   0.0105    5.192
  99   0.0002   0.0053    5.321
 100   0.0000   0.0000    6.908
 101   0.0002  -0.0033    8.394
 102   0.0010  -0.0067    8.279
 103   0.0022  -0.0099    8.090
 104   0.0039  -0.0130    7.797
 105   0.0062  -0.0159    7.453
 106   0.0089  -0.0187    7.069
 107   0.0120  -0.0213    6.569
 108   0.0157  -0.0236    6.100
 109   0.0199  -0.0256    5.602
 110   0.0245  -0.0273    5.071
 111   0.0296  -0.0287    4.604
 112   0.0351  -0.0298    4.135
 113   0.0411  -0.0305    3.700
 114   0.0476  -0.0308    3.287
 115   0.0545  -0.0308    2.913
 116   0.0618  -0.0303    2.569
 117   0.0696  -0.0295    2.259
 118   0.0778  -0.0284    1.979
 119   0.0865  -0.0268    1.702
 120   0.0955  -0.0249    1.470
 121   0.1049  -0.0227    1.252
 122   0.1147  -0.0202    1.046
 123   0.1249  -0.0173    0.860
 124   0.1355  -0.0142    0.693
 125   0.1464  -0.0109    0.527
 126   0.1577  -0.0073    0.385
 127   0.1693  -0.0035    0.242
 128   0.1813   0.0005    0.124
 129   0.1935   0.0045   -0.007
 130   0.2061   0.0087   -0.110
 131   0.2190   0.0130   -0.212
 132   0.2321   0.0172   -0.313
 133   0.2455   0.0215   -0.400
 134   0.2591   0.0258   -0.484
 135   0.2730   0.0300   -0.554
 136   0.2871   0.0341   -0.628
 137   0.3014   0.0381   -0.687
 138   0.3159   0.0420   -0.743
 139   0.3306   0.0458   -0.791
 140   0.3455   0.0493   -0.837
 141   0.3605   0.0527   -0.871
 142   0.3757   0.0558   -0.900
 143   0.3909   0.0588   -0.925
 144   0.4063   0.0615   -0.945
 145   0.4218   0.0639   -0.951
 146   0.4373   0.0661   -0.959
 147   0.4529   0.0680   -0.963
 148   0.4686   0.0697   -0.956
 149   0.4843   0.0711   -0.947
 150   0.5000   0.0723   -0.941
 151   0.5157   0.0732   -0.919
 152   0.5314   0.0738   -0.902
 153   0.5471   0.0742   -0.880
 154   0.5627   0.0744   -0.860
 155   0.5782   0.0743   -0.831
 156   0.5937   0.0740   -0.803
 157   0.6091   0.0735   -0.781
 158   0.6243   0.0728   -0.750
 159   0.6395   0.0718   -0.723
 160   0.6545   0.0707   -0.697
 161   0.6694   0.0695   -0.670
 162   0.6841   0.0681   -0.639
 163   0.6986   0.0665   -0.625
 164   0.7129   0.0648   -0.593
 165   0.7270   0.0629   -0.571
 166   0.7409   0.0610   -0.548
 167   0.7545   0.0589   -0.538
 168   0.7679   0.0568   -0.505
 169   0.7810   0.0546   -0.497
 170   0.7939   0.0523   -0.479
 171   0.8065   0.0500   -0.462
 172   0.8187   0.0476   -0.448
 173   0.8307   0.0452   -0.435
 174   0.8423   0.0427   -0.424
 175   0.8536   0.0403   -0.414
 176   0.8645   0.0378   -0.392
 177   0.8751   0.0353   -0.391
 178   0.8853   0.0329   -0.376
 179   0.8951   0.0305   -0.370
 180   0.9045   0.0281   -0.352
 181   0.9135   0.0257   -0.344
 182   0.9222   0.0234   -0.334
 183   0.9304   0.0212   -0.316
 184   0.9382   0.0190   -0.301
 185   0.9455   0.0169   -0.299
 186   0.9524   0.0149   -0.279
 187   0.9589   0.0130   -0.260
 188   0.9649   0.0112   -0.246
 189   0.9704   0.0095   -0.224
 190   0.9755   0.0079   -0.218
 191   0.9801   0.0064   -0.186
 192   0.9843   0.0051   -0.185
 193   0.9880   0.0039   -0.149
 194   0.9911   0.0029   -0.143
 195   0.9938   0.0020   -0.095
 196   0.9961   0.0013   -0.109
 197   0.9978   0.0007   -0.070
 198   0.9990   0.0003   -0.024
 199   0.9998   0.0001    0.023

 Maximum panel corner angle =  8.394   at  i,x,y  = 101   0.0002  -0.0033

 Enter corner angle criterion for refinement (deg):   4.197
 Enter type of spline parameter (1=uniform, 2=arclength):   1
 Enter refinement x limits:  -0.10000   1.10000
 Number of points added:           36
 Max thickness =     0.127978  at x =   0.146
 Max camber    =     0.106546  at x =   0.484

 Maximum panel corner angle =  3.700   at  i,x,y  = 149   0.0411  -0.0305

.GDES   c>  
 Buffer airfoil is not identical to current airfoil

 XFOIL   c>  
 Blunt trailing edge.  Gap =  0.00028

 Paneling parameters used...
   Number of panel nodes       160
   Panel bunching parameter    1.000
   TE/LE panel density ratio   0.150
   Refined-area/LE panel density ratio    0.200
   Top    side refined area x/c limits  1.000 1.000
   Bottom side refined area x/c limits  1.000 1.000

 XFOIL   c>  
Enter output filename   s>  
 XFOIL   c>  
.OPERi   c>   Current iteration limit:          20

Enter new iteration limit   i>  
Enter new iteration limit   i>  
Enter new iteration limit   i>  
.OPERi   c>  
 M  =    0.0000
 Re =  0.3000E+06

.OPERv   c>  
 Sonic Cp =   -420.65      Sonic Q/Qinf =    22.825


.OPERv   c>  
 Polar  1 newly created for accumulation
 Airfoil archived with polar: 000208                                          

Enter  polar save filename  OR  <return> for no file   s>  
 New polar save file available

Enter  polar dump filename  OR  <return> for no file   s>  
 Polar dump file will NOT be written

 Polar accumulation enabled

.OPERva   c>   Calculating unit vorticity distributions ...
 Calculating wake trajectory ...
 Calculating source influence matrix ...

 Solving BL system ...

 Initializing BL ...
    side            1  ...
 MRCHUE: Inverse mode at  55     Hk =   4.210
 MRCHUE: Inverse mode at  56     Hk =   5.005
 MRCHUE: Inverse mode at  57     Hk =   5.784
 MRCHUE: Inverse mode at  58     Hk =   6.552
 MRCHUE: Inverse mode at  59     Hk =   7.311
 MRCHUE: Inverse mode at  60     Hk =   8.063
 MRCHUE: Inverse mode at  61     Hk =   7.668
 MRCHUE: Inverse mode at  62     Hk =   4.488
 MRCHUE: Inverse mode at  63     Hk =   2.701
 MRCHUE: Convergence failed at  85  side 1    Res =  0.7720E+01
    side            2  ...
 MRCHUE: Inverse mode at  26     Hk =   3.826
 MRCHUE: Inverse mode at  27     Hk =   4.503
 MRCHUE: Inverse mode at  28     Hk =   5.196
 MRCHUE: Inverse mode at  29     Hk =   5.916
 MRCHUE: Inverse mode at  30     Hk =   6.673
 MRCHUE: Inverse mode at  31     Hk =   7.475
 MRCHUE: Inverse mode at  32     Hk =   8.328
 MRCHUE: Inverse mode at  33     Hk =   9.230
 MRCHUE: Inverse mode at  34     Hk =   8.985
 MRCHUE: Inverse mode at  35     Hk =   4.880
 MRCHUE: Inverse mode at  36     Hk =   2.957
 MRCHUE: Inverse mode at  37     Hk =   2.500

 MRCHDU: Convergence failed at  85  side 1    Res =  0.1225E+02
 Side 1  free  transition at x/c =  0.5611   61
 Side 2  free  transition at x/c =  0.1986   34

   1   rms: 0.2562E+00   max: 0.2287E+01   T at   34  2   RLX: 0.369
       a =  2.000      CL =  1.5419
      Cm = -0.2991     CD =  0.01275   =>   CDf =  0.00774    CDp =  0.00501

 MRCHDU: Convergence failed at  63  side 1    Res =  0.5038E+01
 Side 1  free  transition at x/c =  0.5803   62
 Side 2  free  transition at x/c =  0.1829   33

   2   rms: 0.2935E+00   max: 0.2858E+01   T at   33  2   RLX: 0.284
       a =  2.000      CL =  1.5219
      Cm = -0.2953     CD =  0.01285   =>   CDf =  0.00690    CDp =  0.00595

 Side 1  free  transition at x/c =  0.5879   63
 Side 2  free  transition at x/c =  0.1725   33

   3   rms: 0.3018E+00   max: -.1113E+01   D at   46  2   RLX: 0.449
       a =  2.000      CL =  1.4794
      Cm = -0.2853     CD =  0.01403   =>   CDf =  0.00688    CDp =  0.00716

 Side 1  free  transition at x/c =  0.6015   63
 Side 2  free  transition at x/c =  0.1743   33

   4   rms: 0.1834E+00   max: -.7716E+00   D at   45  2   RLX: 0.648
       a =  2.000      CL =  1.4751
      Cm = -0.2832     CD =  0.01500   =>   CDf =  0.00707    CDp =  0.00793

 Side 1  free  transition at x/c =  0.6222   64
 Side 2  free  transition at x/c =  0.1763   33

   5   rms: 0.6339E-01   max: -.3232E+00   D at   35  2
       a =  2.000      CL =  1.4595
      Cm = -0.2797     CD =  0.01506   =>   CDf =  0.00696    CDp =  0.00810

 Side 1  free  transition at x/c =  0.6304   65
 Side 2  free  transition at x/c =  0.1734   33

   6   rms: 0.6942E-02   max: 0.5469E-01   T at   33  2
       a =  2.000      CL =  1.4570
      Cm = -0.2792     CD =  0.01516   =>   CDf =  0.00686    CDp =  0.00830

 Side 1  free  transition at x/c =  0.6287   65
 Side 2  free  transition at x/c =  0.1725   33

   7   rms: 0.7694E-03   max: -.4955E-02   D at   36  2
       a =  2.000      CL =  1.4569
      Cm = -0.2791     CD =  0.01516   =>   CDf =  0.00689    CDp =  0.00827

 Side 1  free  transition at x/c =  0.6286   65
 Side 2  free  transition at x/c =  0.1725   33

   8   rms: 0.2233E-05   max: -.2107E-04   D at   66  1
       a =  2.000      CL =  1.4569
      Cm = -0.2791     CD =  0.01516   =>   CDf =  0.00689    CDp =  0.00827

 Point added to stored polar  1
 Point written to save file  000208M0.04.log                                 
 Dump file unspecified or not available
 Calculating wake trajectory ...
 Calculating source influence matrix ...

 Solving BL system ...

 Side 1  free  transition at x/c =  0.6286   65
 Side 2  free  transition at x/c =  0.1725   33

   1   rms: 0.1614E+00   max: -.9976E+00   T at   33  2   RLX: 0.501
       a =  3.000      CL =  1.5116
      Cm = -0.2785     CD =  0.01559   =>   CDf =  0.00690    CDp =  0.00868

 Side 1  free  transition at x/c =  0.6117   64
 Side 2  free  transition at x/c =  0.1818   33

   2   rms: 0.1317E+00   max: -.9198E+00   T at   33  2   RLX: 0.544
       a =  3.000      CL =  1.5378
      Cm = -0.2774     CD =  0.01597   =>   CDf =  0.00663    CDp =  0.00934

 Side 1  free  transition at x/c =  0.6014   64
 Side 2  free  transition at x/c =  0.1914   33

   3   rms: 0.8050E-01   max: 0.8593E+00   D at   33  2
       a =  3.000      CL =  1.5584
      Cm = -0.2765     CD =  0.01568   =>   CDf =  0.00709    CDp =  0.00859

 Side 1  free  transition at x/c =  0.5891   64
 Side 2  free  transition at x/c =  0.1936   33

   4   rms: 0.1371E-01   max: 0.7509E-01   D at   34  2
       a =  3.000      CL =  1.5591
      Cm = -0.2767     CD =  0.01575   =>   CDf =  0.00709    CDp =  0.00866

 Side 1  free  transition at x/c =  0.5908   64
 Side 2  free  transition at x/c =  0.1932   33

   5   rms: 0.3989E-03   max: -.4713E-02   D at   65  1
       a =  3.000      CL =  1.5593
      Cm = -0.2767     CD =  0.01576   =>   CDf =  0.00702    CDp =  0.00873

 Side 1  free  transition at x/c =  0.5907   64
 Side 2  free  transition at x/c =  0.1932   33

   6   rms: 0.3451E-05   max: -.1566E-04   D at   84  1
       a =  3.000      CL =  1.5593
      Cm = -0.2767     CD =  0.01576   =>   CDf =  0.00703    CDp =  0.00873

 Point added to stored polar  1
 Point written to save file  000208M0.04.log                                 
 Dump file unspecified or not available
 Calculating wake trajectory ...
 Calculating source influence matrix ...

 Solving BL system ...

 Side 1  free  transition at x/c =  0.5907   64
 Side 2  free  transition at x/c =  0.1932   33

   1   rms: 0.1574E+00   max: -.1008E+01   T at   33  2   RLX: 0.496
       a =  4.000      CL =  1.6094
      Cm = -0.2754     CD =  0.01623   =>   CDf =  0.00704    CDp =  0.00919

 Side 1  free  transition at x/c =  0.5739   63
 Side 2  free  transition at x/c =  0.2039   34

   2   rms: 0.8458E-01   max: -.6690E+00   T at   34  2   RLX: 0.747
       a =  4.000      CL =  1.6441
      Cm = -0.2738     CD =  0.01633   =>   CDf =  0.00691    CDp =  0.00942

 Side 1  free  transition at x/c =  0.5583   63
 Side 2  free  transition at x/c =  0.2123   33

   3   rms: 0.6314E-01   max: -.3304E+00   D at   33  2
       a =  4.000      CL =  1.6556
      Cm = -0.2732     CD =  0.01659   =>   CDf =  0.00712    CDp =  0.00947

 Side 1  free  transition at x/c =  0.5526   63
 Side 2  free  transition at x/c =  0.2170   33

   4   rms: 0.2482E-02   max: -.1318E-01   C at   63  1
       a =  4.000      CL =  1.6566
      Cm = -0.2734     CD =  0.01661   =>   CDf =  0.00718    CDp =  0.00943

 Side 1  free  transition at x/c =  0.5530   63
 Side 2  free  transition at x/c =  0.2169   33

   5   rms: 0.5690E-04   max: 0.4978E-03   D at   34  2
       a =  4.000      CL =  1.6566
      Cm = -0.2734     CD =  0.01661   =>   CDf =  0.00717    CDp =  0.00944

 Point added to stored polar  1
 Point written to save file  000208M0.04.log                                 
 Dump file unspecified or not available
 Calculating wake trajectory ...
 Calculating source influence matrix ...

 Solving BL system ...

 Side 1  free  transition at x/c =  0.5530   63
 Side 2  free  transition at x/c =  0.2169   33

   1   rms: 0.1595E+00   max: -.1099E+01   T at   33  2   RLX: 0.455
       a =  5.000      CL =  1.6986
      Cm = -0.2714     CD =  0.01711   =>   CDf =  0.00694    CDp =  0.01017

 Side 1  free  transition at x/c =  0.5365   63
 Side 2  free  transition at x/c =  0.2335   33

   2   rms: 0.1044E+00   max: 0.1019E+01   D at   33  2
       a =  5.000      CL =  1.7452
      Cm = -0.2686     CD =  0.01754   =>   CDf =  0.00724    CDp =  0.01030

 Side 1  free  transition at x/c =  0.5136   62
 Side 2  free  transition at x/c =  0.2438   34

   3   rms: 0.2806E-01   max: 0.2384E+00   D at   34  2
       a =  5.000      CL =  1.7441
      Cm = -0.2684     CD =  0.01769   =>   CDf =  0.00734    CDp =  0.01034

 Side 1  free  transition at x/c =  0.5164   62
 Side 2  free  transition at x/c =  0.2425   34

   4   rms: 0.3143E-02   max: 0.2907E-01   C at   62  1
       a =  5.000      CL =  1.7462
      Cm = -0.2688     CD =  0.01772   =>   CDf =  0.00723    CDp =  0.01049

 Side 1  free  transition at x/c =  0.5153   62
 Side 2  free  transition at x/c =  0.2427   34

   5   rms: 0.4362E-04   max: -.4351E-03   D at   62  1
       a =  5.000      CL =  1.7462
      Cm = -0.2688     CD =  0.01772   =>   CDf =  0.00725    CDp =  0.01047

 Point added to stored polar  1
 Point written to save file  000208M0.04.log                                 
 Dump file unspecified or not available
 Calculating wake trajectory ...
 Calculating source influence matrix ...

 Solving BL system ...

 Side 1  free  transition at x/c =  0.5153   62
 Side 2  free  transition at x/c =  0.2427   34

   1   rms: 0.1529E+00   max: -.1145E+01   T at   34  2   RLX: 0.437
       a =  6.000      CL =  1.7815
      Cm = -0.2662     CD =  0.01828   =>   CDf =  0.00700    CDp =  0.01128

 Side 1  free  transition at x/c =  0.4985   62
 Side 2  free  transition at x/c =  0.2532   33

   2   rms: 0.1041E+00   max: -.7481E+00   T at   33  2   RLX: 0.668
       a =  6.000      CL =  1.8078
      Cm = -0.2629     CD =  0.01910   =>   CDf =  0.00731    CDp =  0.01179

 Side 1  free  transition at x/c =  0.4832   61
 Side 2  free  transition at x/c =  0.2694   34

   3   rms: 0.4993E-01   max: 0.6672E+00   D at   34  2
       a =  6.000      CL =  1.8181
      Cm = -0.2609     CD =  0.01922   =>   CDf =  0.00737    CDp =  0.01185

 Side 1  free  transition at x/c =  0.4788   61
 Side 2  free  transition at x/c =  0.2718   34

   4   rms: 0.4838E-02   max: 0.4484E-01   D at   35  2
       a =  6.000      CL =  1.8202
      Cm = -0.2614     CD =  0.01925   =>   CDf =  0.00727    CDp =  0.01198

 Side 1  free  transition at x/c =  0.4786   61
 Side 2  free  transition at x/c =  0.2714   34

   5   rms: 0.1280E-03   max: 0.9926E-03   D at   35  2
       a =  6.000      CL =  1.8203
      Cm = -0.2614     CD =  0.01925   =>   CDf =  0.00727    CDp =  0.01198

 Side 1  free  transition at x/c =  0.4785   61
 Side 2  free  transition at x/c =  0.2714   34

   6   rms: 0.1980E-05   max: -.7266E-05   D at   82  2
       a =  6.000      CL =  1.8203
      Cm = -0.2614     CD =  0.01925   =>   CDf =  0.00727    CDp =  0.01198

 Point added to stored polar  1
 Point written to save file  000208M0.04.log                                 
 Dump file unspecified or not available
 Calculating wake trajectory ...
 Calculating source influence matrix ...

 Solving BL system ...

 Side 1  free  transition at x/c =  0.4785   61
 Side 2  free  transition at x/c =  0.2714   34

   1   rms: 0.1412E+00   max: -.9789E+00   T at   34  2   RLX: 0.511
       a =  7.000      CL =  1.8540
      Cm = -0.2570     CD =  0.02009   =>   CDf =  0.00701    CDp =  0.01309

 Side 1  free  transition at x/c =  0.4579   61
 Side 2  free  transition at x/c =  0.2910   34

   2   rms: 0.7240E-01   max: 0.6087E+00   D at   34  2
       a =  7.000      CL =  1.8855
      Cm = -0.2529     CD =  0.02114   =>   CDf =  0.00733    CDp =  0.01381

 Side 1  free  transition at x/c =  0.4401   60
 Side 2  free  transition at x/c =  0.3038   35

   3   rms: 0.1587E-01   max: 0.1907E+00   D at   35  2
       a =  7.000      CL =  1.8862
      Cm = -0.2531     CD =  0.02132   =>   CDf =  0.00734    CDp =  0.01398

 Side 1  free  transition at x/c =  0.4421   60
 Side 2  free  transition at x/c =  0.3040   35

   4   rms: 0.1407E-02   max: -.7256E-02   D at   87  1
       a =  7.000      CL =  1.8873
      Cm = -0.2533     CD =  0.02130   =>   CDf =  0.00727    CDp =  0.01404

 Side 1  free  transition at x/c =  0.4418   60
 Side 2  free  transition at x/c =  0.3041   35

   5   rms: 0.7826E-05   max: -.6228E-04   C at   60  1
       a =  7.000      CL =  1.8873
      Cm = -0.2533     CD =  0.02131   =>   CDf =  0.00727    CDp =  0.01403

 Point added to stored polar  1
 Point written to save file  000208M0.04.log                                 
 Dump file unspecified or not available
 Calculating wake trajectory ...
 Calculating source influence matrix ...

 Solving BL system ...

 Side 1  free  transition at x/c =  0.4418   60
 Side 2  free  transition at x/c =  0.3041   35

   1   rms: 0.1430E+00   max: -.1004E+01   T at   35  2   RLX: 0.498
       a =  8.000      CL =  1.9203
      Cm = -0.2494     CD =  0.02228   =>   CDf =  0.00700    CDp =  0.01529

 Side 1  free  transition at x/c =  0.4208   60
 Side 2  free  transition at x/c =  0.3234   35

   2   rms: 0.7153E-01   max: -.5274E+00   T at   35  2   RLX: 0.948
       a =  8.000      CL =  1.9468
      Cm = -0.2451     CD =  0.02368   =>   CDf =  0.00735    CDp =  0.01634

 Side 1  free  transition at x/c =  0.4039   59
 Side 2  free  transition at x/c =  0.3403   36

   3   rms: 0.1580E-01   max: -.1239E+00   T at   36  2
       a =  8.000      CL =  1.9460
      Cm = -0.2445     CD =  0.02405   =>   CDf =  0.00732    CDp =  0.01673

 Side 1  free  transition at x/c =  0.4053   59
 Side 2  free  transition at x/c =  0.3442   36

   4   rms: 0.2180E-02   max: -.2157E-01   D at   36  2
       a =  8.000      CL =  1.9465
      Cm = -0.2446     CD =  0.02405   =>   CDf =  0.00725    CDp =  0.01680

 Side 1  free  transition at x/c =  0.4051   59
 Side 2  free  transition at x/c =  0.3445   36

   5   rms: 0.1576E-04   max: 0.1779E-03   D at   37  2
       a =  8.000      CL =  1.9465
      Cm = -0.2446     CD =  0.02405   =>   CDf =  0.00725    CDp =  0.01680

 Point added to stored polar  1
 Point written to save file  000208M0.04.log                                 
 Dump file unspecified or not available
 Calculating wake trajectory ...
 Calculating source influence matrix ...

 Solving BL system ...

 Side 1  free  transition at x/c =  0.4051   59
 Side 2  free  transition at x/c =  0.3445   36

   1   rms: 0.1470E+00   max: -.1074E+01   T at   36  2   RLX: 0.465
       a =  9.000      CL =  1.9775
      Cm = -0.2413     CD =  0.02511   =>   CDf =  0.00695    CDp =  0.01815

 Side 1  free  transition at x/c =  0.3847   59
 Side 2  free  transition at x/c =  0.3695   36

   2   rms: 0.8177E-01   max: -.6939E+00   T at   36  2   RLX: 0.721
       a =  9.000      CL =  1.9952
      Cm = -0.2375     CD =  0.02670   =>   CDf =  0.00733    CDp =  0.01937

 MRCHDU: Convergence failed at  38  side 2    Res =  0.1110E+02
 MRCHDU: Convergence failed at  39  side 2    Res =  0.4001E+01
 MRCHDU: Convergence failed at  40  side 2    Res =  0.1714E+02
 MRCHDU: Convergence failed at  41  side 2    Res =  0.6728E+02
 MRCHDU: Convergence failed at  42  side 2    Res =  0.2906E+02
 MRCHDU: Convergence failed at  43  side 2    Res =  0.3053E+02
 MRCHDU: Convergence failed at  44  side 2    Res =  0.2092E+04
 MRCHDU: Convergence failed at  45  side 2    Res =  0.2255E+02
 MRCHDU: Convergence failed at  46  side 2    Res =  0.9100E+01
 MRCHDU: Convergence failed at  47  side 2    Res =  0.4035E+01
 Side 1  free  transition at x/c =  0.3720   59
 Side 2  free  transition at x/c =  0.3972   38

   3   rms: 0.1309E+00   max: -.1011E+01   D at   46  2   RLX: 0.495
       a =  9.000      CL =  1.9935
      Cm = -0.2358     CD =  0.02701   =>   CDf =  0.00681    CDp =  0.02020

 Side 1  free  transition at x/c =  0.3703   59
 Side 2  free  transition at x/c =  0.4052   38

   4   rms: 0.3071E-01   max: -.4567E+00   D at   39  2
       a =  9.000      CL =  1.9989
      Cm = -0.2357     CD =  0.02752   =>   CDf =  0.00716    CDp =  0.02035

 Side 1  free  transition at x/c =  0.3687   59
 Side 2  free  transition at x/c =  0.4026   38

   5   rms: 0.3035E-02   max: 0.4404E-01   D at   40  2
       a =  9.000      CL =  1.9986
      Cm = -0.2357     CD =  0.02752   =>   CDf =  0.00711    CDp =  0.02042

 Side 1  free  transition at x/c =  0.3687   59
 Side 2  free  transition at x/c =  0.4018   38

   6   rms: 0.3898E-04   max: -.7807E-03   D at   40  2
       a =  9.000      CL =  1.9986
      Cm = -0.2357     CD =  0.02752   =>   CDf =  0.00711    CDp =  0.02042

 Point added to stored polar  1
 Point written to save file  000208M0.04.log                                 
 Dump file unspecified or not available
 Calculating wake trajectory ...
 Calculating source influence matrix ...

 Solving BL system ...

 Side 1  free  transition at x/c =  0.3687   59
 Side 2  free  transition at x/c =  0.4017   38

   1   rms: 0.1560E+00   max: -.1033E+01   T at   38  2   RLX: 0.484
       a = 10.000      CL =  2.0181
      Cm = -0.2307     CD =  0.02981   =>   CDf =  0.00679    CDp =  0.02302

 Side 1  free  transition at x/c =  0.3527   59
 Side 2  free  transition at x/c =  0.4411   39

   2   rms: 0.9442E-01   max: -.8687E+00   T at   39  2   RLX: 0.576
       a = 10.000      CL =  2.0311
      Cm = -0.2279     CD =  0.03098   =>   CDf =  0.00705    CDp =  0.02393

 Side 1  free  transition at x/c =  0.3432   58
 Side 2  free  transition at x/c =  0.4956   42

   3   rms: 0.2553E+00   max: -.4769E+01   C at   42  2   RLX: 0.105
       a = 10.000      CL =  2.0321
      Cm = -0.2275     CD =  0.03119   =>   CDf =  0.00691    CDp =  0.02428

 Side 1  free  transition at x/c =  0.3421   58
 Side 2  free  transition at x/c =  0.4969   42

   4   rms: 0.6009E-01   max: -.5910E+00   T at   42  2   RLX: 0.846
       a = 10.000      CL =  2.0434
      Cm = -0.2271     CD =  0.03159   =>   CDf =  0.00694    CDp =  0.02465

 Side 1  free  transition at x/c =  0.3338   58
 Side 2 forced transition at x/c =  1.0001   69

   5   rms: 0.3199E-01   max: 0.5188E+00   D at   42  2
       a = 10.000      CL =  2.0406
      Cm = -0.2262     CD =  0.03152   =>   CDf =  0.00659    CDp =  0.02492

 Side 1  free  transition at x/c =  0.3335   58
 Side 2 forced transition at x/c =  1.0001   69

   6   rms: 0.5174E-02   max: 0.5043E-01   D at   43  2
       a = 10.000      CL =  2.0406
      Cm = -0.2262     CD =  0.03151   =>   CDf =  0.00658    CDp =  0.02493

 Side 1  free  transition at x/c =  0.3335   58
 Side 2 forced transition at x/c =  1.0001   69

   7   rms: 0.2927E-03   max: 0.2102E-02   D at   40  2
       a = 10.000      CL =  2.0406
      Cm = -0.2262     CD =  0.03151   =>   CDf =  0.00657    CDp =  0.02493

 Side 1  free  transition at x/c =  0.3335   58
 Side 2 forced transition at x/c =  1.0001   69

   8   rms: 0.3586E-05   max: -.2822E-04   D at   82  2
       a = 10.000      CL =  2.0406
      Cm = -0.2262     CD =  0.03151   =>   CDf =  0.00657    CDp =  0.02493

 Point added to stored polar  1
 Point written to save file  000208M0.04.log                                 
 Dump file unspecified or not available
 Calculating wake trajectory ...
 Calculating source influence matrix ...

 Solving BL system ...

 Side 1  free  transition at x/c =  0.3335   58
 Side 2 forced transition at x/c =  1.0001   69

   1   rms: 0.1811E+00   max: -.5843E+00   D at   58  1   RLX: 0.834
       a = 11.000      CL =  2.0659
      Cm = -0.2175     CD =  0.03643   =>   CDf =  0.00625    CDp =  0.03019

 Side 1  free  transition at x/c =  0.3069   57
 Side 2 forced transition at x/c =  1.0001   68

   2   rms: 0.3778E-01   max: 0.2933E+00   D at   58  1
       a = 11.000      CL =  2.0755
      Cm = -0.2168     CD =  0.03714   =>   CDf =  0.00667    CDp =  0.03047

 Side 1  free  transition at x/c =  0.2985   57
 Side 2 forced transition at x/c =  1.0001   68

   3   rms: 0.5822E-02   max: 0.3365E-01   D at   84  1
       a = 11.000      CL =  2.0725
      Cm = -0.2165     CD =  0.03729   =>   CDf =  0.00662    CDp =  0.03067

 Side 1  free  transition at x/c =  0.2991   57
 Side 2 forced transition at x/c =  1.0001   68

   4   rms: 0.1908E-03   max: 0.1088E-02   D at   33  2
       a = 11.000      CL =  2.0725
      Cm = -0.2165     CD =  0.03727   =>   CDf =  0.00659    CDp =  0.03068

 Side 1  free  transition at x/c =  0.2991   57
 Side 2 forced transition at x/c =  1.0001   68

   5   rms: 0.2536E-05   max: -.2156E-04   D at   80  2
       a = 11.000      CL =  2.0725
      Cm = -0.2165     CD =  0.03727   =>   CDf =  0.00659    CDp =  0.03068

 Point added to stored polar  1
 Point written to save file  000208M0.04.log                                 
 Dump file unspecified or not available
 Calculating wake trajectory ...
 Calculating source influence matrix ...

 Solving BL system ...

 Side 1  free  transition at x/c =  0.2991   57
 Side 2 forced transition at x/c =  1.0001   68

   1   rms: 0.1344E+00   max: -.5172E+00   D at   57  1   RLX: 0.728
       a = 12.000      CL =  2.0905
      Cm = -0.2095     CD =  0.04236   =>   CDf =  0.00625    CDp =  0.03611

 Side 1  free  transition at x/c =  0.2758   57
 Side 2 forced transition at x/c =  1.0001   67

   2   rms: 0.4111E-01   max: -.2832E+00   D at   58  1
       a = 12.000      CL =  2.0901
      Cm = -0.2068     CD =  0.04509   =>   CDf =  0.00667    CDp =  0.03843

 Side 1  free  transition at x/c =  0.2671   56
 Side 2 forced transition at x/c =  1.0001   67

   3   rms: 0.9791E-02   max: -.1154E+00   D at   56  1
       a = 12.000      CL =  2.0949
      Cm = -0.2074     CD =  0.04452   =>   CDf =  0.00656    CDp =  0.03796

 Side 1  free  transition at x/c =  0.2664   56
 Side 2 forced transition at x/c =  1.0001   67

   4   rms: 0.8864E-03   max: -.5289E-02   D at   83  1
       a = 12.000      CL =  2.0955
      Cm = -0.2074     CD =  0.04449   =>   CDf =  0.00655    CDp =  0.03795

 Side 1  free  transition at x/c =  0.2662   56
 Side 2 forced transition at x/c =  1.0001   67

   5   rms: 0.2187E-04   max: -.2442E-03   D at   80  2
       a = 12.000      CL =  2.0955
      Cm = -0.2074     CD =  0.04450   =>   CDf =  0.00655    CDp =  0.03795

 Point added to stored polar  1
 Point written to save file  000208M0.04.log                                 
 Dump file unspecified or not available
 Calculating wake trajectory ...
 Calculating source influence matrix ...

 Solving BL system ...

 Side 1  free  transition at x/c =  0.2662   56
 Side 2 forced transition at x/c =  1.0001   67

   1   rms: 0.1266E+00   max: 0.4456E+00   C at   56  1   RLX: 0.643
       a = 13.000      CL =  2.1106
      Cm = -0.2023     CD =  0.04970   =>   CDf =  0.00657    CDp =  0.04313

 Side 1  free  transition at x/c =  0.2462   55
 Side 2 forced transition at x/c =  1.0001   67

   2   rms: 0.4533E-01   max: -.3735E+00   D at   55  1
       a = 13.000      CL =  2.1130
      Cm = -0.1995     CD =  0.05318   =>   CDf =  0.00619    CDp =  0.04698

 Side 1  free  transition at x/c =  0.2368   55
 Side 2 forced transition at x/c =  1.0001   66

   3   rms: 0.6439E-02   max: -.5498E-01   D at   55  1
       a = 13.000      CL =  2.1087
      Cm = -0.1991     CD =  0.05345   =>   CDf =  0.00651    CDp =  0.04694

 Side 1  free  transition at x/c =  0.2361   55
 Side 2 forced transition at x/c =  1.0001   66

   4   rms: 0.7187E-03   max: -.7792E-02   D at    4  1
       a = 13.000      CL =  2.1088
      Cm = -0.1991     CD =  0.05344   =>   CDf =  0.00648    CDp =  0.04696

 Side 1  free  transition at x/c =  0.2361   55
 Side 2 forced transition at x/c =  1.0001   66

   5   rms: 0.1328E-04   max: 0.1146E-03   C at   66  2
       a = 13.000      CL =  2.1088
      Cm = -0.1991     CD =  0.05344   =>   CDf =  0.00648    CDp =  0.04696

 Point added to stored polar  1
 Point written to save file  000208M0.04.log                                 
 Dump file unspecified or not available
 Calculating wake trajectory ...
 Calculating source influence matrix ...

 Solving BL system ...

 Side 1  free  transition at x/c =  0.2361   55
 Side 2 forced transition at x/c =  1.0001   66

   1   rms: 0.1198E+00   max: 0.3862E+00   D at   79  1   RLX: 0.570
       a = 14.000      CL =  2.1214
      Cm = -0.1955     CD =  0.05873   =>   CDf =  0.00651    CDp =  0.05222

 Side 1  free  transition at x/c =  0.2185   54
 Side 2 forced transition at x/c =  1.0001   66

   2   rms: 0.5007E-01   max: -.2737E+00   D at   54  1
       a = 14.000      CL =  2.1221
      Cm = -0.1926     CD =  0.06354   =>   CDf =  0.00613    CDp =  0.05741

 Side 1  free  transition at x/c =  0.2073   54
 Side 2 forced transition at x/c =  1.0001   65

   3   rms: 0.1428E-01   max: -.1066E+00   D at    2  1
       a = 14.000      CL =  2.1090
      Cm = -0.1918     CD =  0.06464   =>   CDf =  0.00690    CDp =  0.05774

 Side 1  free  transition at x/c =  0.2080   53
 Side 2 forced transition at x/c =  1.0001   66

   4   rms: 0.5089E-02   max: -.8657E-01   C at   53  1
       a = 14.000      CL =  2.1085
      Cm = -0.1917     CD =  0.06459   =>   CDf =  0.00649    CDp =  0.05810

 Side 1  free  transition at x/c =  0.2081   53
 Side 2 forced transition at x/c =  1.0001   66

   5   rms: 0.4704E-02   max: -.8542E-01   C at   53  1
       a = 14.000      CL =  2.1085
      Cm = -0.1917     CD =  0.06458   =>   CDf =  0.00649    CDp =  0.05809

 Side 1  free  transition at x/c =  0.2081   53
 Side 2 forced transition at x/c =  1.0001   66

   6   rms: 0.4689E-02   max: -.8555E-01   C at   53  1
       a = 14.000      CL =  2.1085
      Cm = -0.1917     CD =  0.06458   =>   CDf =  0.00649    CDp =  0.05809

 Side 1  free  transition at x/c =  0.2081   53
 Side 2 forced transition at x/c =  1.0001   66

   7   rms: 0.4688E-02   max: -.8554E-01   C at   53  1
       a = 14.000      CL =  2.1085
      Cm = -0.1917     CD =  0.06458   =>   CDf =  0.00649    CDp =  0.05809

 Side 1  free  transition at x/c =  0.2081   53
 Side 2 forced transition at x/c =  1.0001   66

   8   rms: 0.4688E-02   max: -.8554E-01   C at   53  1
       a = 14.000      CL =  2.1085
      Cm = -0.1917     CD =  0.06458   =>   CDf =  0.00649    CDp =  0.05809

 Side 1  free  transition at x/c =  0.2081   53
 Side 2 forced transition at x/c =  1.0001   66

   9   rms: 0.4688E-02   max: -.8554E-01   C at   53  1
       a = 14.000      CL =  2.1085
      Cm = -0.1917     CD =  0.06458   =>   CDf =  0.00649    CDp =  0.05809

 Side 1  free  transition at x/c =  0.2081   53
 Side 2 forced transition at x/c =  1.0001   66

  10   rms: 0.4688E-02   max: -.8553E-01   C at   53  1
       a = 14.000      CL =  2.1085
      Cm = -0.1917     CD =  0.06458   =>   CDf =  0.00649    CDp =  0.05809

 Side 1  free  transition at x/c =  0.2081   53
 Side 2 forced transition at x/c =  1.0001   66

  11   rms: 0.4688E-02   max: -.8554E-01   C at   53  1
       a = 14.000      CL =  2.1085
      Cm = -0.1917     CD =  0.06458   =>   CDf =  0.00649    CDp =  0.05809

 Side 1  free  transition at x/c =  0.2081   53
 Side 2 forced transition at x/c =  1.0001   66

  12   rms: 0.4688E-02   max: -.8554E-01   C at   53  1
       a = 14.000      CL =  2.1085
      Cm = -0.1917     CD =  0.06458   =>   CDf =  0.00649    CDp =  0.05809

 Side 1  free  transition at x/c =  0.2081   53
 Side 2 forced transition at x/c =  1.0001   66

  13   rms: 0.4688E-02   max: -.8554E-01   C at   53  1
       a = 14.000      CL =  2.1085
      Cm = -0.1917     CD =  0.06458   =>   CDf =  0.00649    CDp =  0.05809

 Side 1  free  transition at x/c =  0.2081   53
 Side 2 forced transition at x/c =  1.0001   66

  14   rms: 0.4688E-02   max: -.8553E-01   C at   53  1
       a = 14.000      CL =  2.1085
      Cm = -0.1917     CD =  0.06458   =>   CDf =  0.00649    CDp =  0.05809

 Side 1  free  transition at x/c =  0.2081   53
 Side 2 forced transition at x/c =  1.0001   66

  15   rms: 0.4688E-02   max: -.8553E-01   C at   53  1
       a = 14.000      CL =  2.1085
      Cm = -0.1917     CD =  0.06458   =>   CDf =  0.00649    CDp =  0.05809

 Side 1  free  transition at x/c =  0.2081   53
 Side 2 forced transition at x/c =  1.0001   66

  16   rms: 0.4688E-02   max: -.8554E-01   C at   53  1
       a = 14.000      CL =  2.1085
      Cm = -0.1917     CD =  0.06458   =>   CDf =  0.00649    CDp =  0.05809

 Side 1  free  transition at x/c =  0.2081   53
 Side 2 forced transition at x/c =  1.0001   66

  17   rms: 0.4688E-02   max: -.8554E-01   C at   53  1
       a = 14.000      CL =  2.1085
      Cm = -0.1917     CD =  0.06458   =>   CDf =  0.00649    CDp =  0.05809

 Side 1  free  transition at x/c =  0.2081   53
 Side 2 forced transition at x/c =  1.0001   66

  18   rms: 0.4688E-02   max: -.8554E-01   C at   53  1
       a = 14.000      CL =  2.1085
      Cm = -0.1917     CD =  0.06458   =>   CDf =  0.00649    CDp =  0.05809

 Side 1  free  transition at x/c =  0.2081   53
 Side 2 forced transition at x/c =  1.0001   66

  19   rms: 0.4688E-02   max: -.8554E-01   C at   53  1
       a = 14.000      CL =  2.1085
      Cm = -0.1917     CD =  0.06458   =>   CDf =  0.00649    CDp =  0.05809

 Side 1  free  transition at x/c =  0.2081   53
 Side 2 forced transition at x/c =  1.0001   66

  20   rms: 0.4688E-02   max: -.8554E-01   C at   53  1
       a = 14.000      CL =  2.1085
      Cm = -0.1917     CD =  0.06458   =>   CDf =  0.00649    CDp =  0.05809

 Side 1  free  transition at x/c =  0.2081   53
 Side 2 forced transition at x/c =  1.0001   66

  21   rms: 0.4688E-02   max: -.8554E-01   C at   53  1
       a = 14.000      CL =  2.1085
      Cm = -0.1917     CD =  0.06458   =>   CDf =  0.00649    CDp =  0.05809

 Side 1  free  transition at x/c =  0.2081   53
 Side 2 forced transition at x/c =  1.0001   66

  22   rms: 0.4688E-02   max: -.8553E-01   C at   53  1
       a = 14.000      CL =  2.1085
      Cm = -0.1917     CD =  0.06458   =>   CDf =  0.00649    CDp =  0.05809

 Side 1  free  transition at x/c =  0.2081   53
 Side 2 forced transition at x/c =  1.0001   66

  23   rms: 0.4688E-02   max: -.8554E-01   C at   53  1
       a = 14.000      CL =  2.1085
      Cm = -0.1917     CD =  0.06458   =>   CDf =  0.00649    CDp =  0.05809

 Side 1  free  transition at x/c =  0.2081   53
 Side 2 forced transition at x/c =  1.0001   66

  24   rms: 0.4689E-02   max: -.8554E-01   C at   53  1
       a = 14.000      CL =  2.1085
      Cm = -0.1917     CD =  0.06458   =>   CDf =  0.00649    CDp =  0.05809

 Side 1  free  transition at x/c =  0.2081   53
 Side 2 forced transition at x/c =  1.0001   66

  25   rms: 0.4688E-02   max: -.8554E-01   C at   53  1
       a = 14.000      CL =  2.1085
      Cm = -0.1917     CD =  0.06458   =>   CDf =  0.00649    CDp =  0.05809
 VISCAL:  Convergence failed
 Calculating wake trajectory ...
 Calculating source influence matrix ...

 Solving BL system ...

 Side 1  free  transition at x/c =  0.2081   53
 Side 2 forced transition at x/c =  1.0001   66

   1   rms: 0.1220E+00   max: -.8388E+00   C at   53  1   RLX: 0.513
       a = 15.000      CL =  2.1270
      Cm = -0.1900     CD =  0.06915   =>   CDf =  0.00611    CDp =  0.06305

 Side 1  free  transition at x/c =  0.1929   54
 Side 2 forced transition at x/c =  1.0001   65

   2   rms: 0.6109E-01   max: 0.2959E+00   D at   79  1
       a = 15.000      CL =  2.1040
      Cm = -0.1857     CD =  0.07784   =>   CDf =  0.00648    CDp =  0.07136

 Side 1  free  transition at x/c =  0.1844   53
 Side 2 forced transition at x/c =  1.0001   65

   3   rms: 0.1848E-01   max: -.2338E+00   D at   53  1
       a = 15.000      CL =  2.1085
      Cm = -0.1865     CD =  0.07681   =>   CDf =  0.00624    CDp =  0.07057

 Side 1  free  transition at x/c =  0.1847   53
 Side 2 forced transition at x/c =  1.0001   65

   4   rms: 0.3832E-02   max: 0.3194E-01   C at   53  1
       a = 15.000      CL =  2.1102
      Cm = -0.1864     CD =  0.07640   =>   CDf =  0.00618    CDp =  0.07022

 Side 1  free  transition at x/c =  0.1839   53
 Side 2 forced transition at x/c =  1.0001   65

   5   rms: 0.2239E-03   max: -.1728E-02   D at   80  2
       a = 15.000      CL =  2.1103
      Cm = -0.1864     CD =  0.07646   =>   CDf =  0.00621    CDp =  0.07025

 Side 1  free  transition at x/c =  0.1839   53
 Side 2 forced transition at x/c =  1.0001   65

   6   rms: 0.7959E-05   max: -.5945E-04   D at   80  2
       a = 15.000      CL =  2.1103
      Cm = -0.1864     CD =  0.07646   =>   CDf =  0.00621    CDp =  0.07025

 Point added to stored polar  1
 Point written to save file  000208M0.04.log                                 
 Dump file unspecified or not available

.OPERva   c>  
 XFOIL   c>  
0.1
resp: 
 ===================================================
  XFOIL Version 6.97
  Copyright (C) 2000   Mark Drela, Harold Youngren

  This software comes with ABSOLUTELY NO WARRANTY,
    subject to the GNU General Public License.

  Caveat computor
 ===================================================

 File  xfoil.def  not found

   QUIT    Exit program

  .OPER    Direct operating point(s)
  .MDES    Complex mapping design routine
  .QDES    Surface speed design routine
  .GDES    Geometry design routine

   SAVE f  Write airfoil to labeled coordinate file
   PSAV f  Write airfoil to plain coordinate file
   ISAV f  Write airfoil to ISES coordinate file
   MSAV f  Write airfoil to MSES coordinate file
   REVE    Reverse written-airfoil node ordering
   DELI i  Change written-airfoil file delimiters

   LOAD f  Read buffer airfoil from coordinate file
   NACA i  Set NACA 4,5-digit airfoil and buffer airfoil
   INTE    Set buffer airfoil by interpolating two airfoils
   NORM    Buffer airfoil normalization toggle
   HALF    Halve the number of points in buffer airfoil
   XYCM rr Change CM reference location, currently  0.25000 0.00000

   BEND    Display structural properties of current airfoil

   PCOP    Set current-airfoil panel nodes directly from buffer airfoil points
   PANE    Set current-airfoil panel nodes ( 160 ) based on curvature
  .PPAR    Show/change paneling

  .PLOP    Plotting options

   WDEF f  Write  current-settings file
   RDEF f  Reread current-settings file
   NAME s  Specify new airfoil name
   NINC    Increment name version number

   Z       Zoom    | (available in all menus)
   U       Unzoom  | 

 XFOIL   c>   ...............................................

  G raphics-enable flag:        T
  S ize of plot object          10.00"
  A spect ratio of plot object   0.5500
  P age dimensions              11.00 x  8.50"
  M argins from page edges       0.00",  0.00"
  F ont size (relative)          0.0150
  W indow/screen size fraction   0.8000
  B lowup input method:        Cursor    
  O rientation of plot:        Landscape 
  C olor PostScript output?     F

      Option, Value   (or <Return>)    c>   ...............................................

  G raphics-enable flag:        F
  S ize of plot object          10.00"
  A spect ratio of plot object   0.5500
  P age dimensions              11.00 x  8.50"
  M argins from page edges       0.00",  0.00"
  F ont size (relative)          0.0150
  W indow/screen size fraction   0.8000
  B lowup input method:        Cursor    
  O rientation of plot:        Landscape 
  C olor PostScript output?     F

      Option, Value   (or <Return>)    c>  
 XFOIL   c>  
 Labeled airfoil file.  Name:  000208                                          

 Number of input coordinate points: 200
 Clockwise ordering
 Max thickness =     0.128001  at x =   0.146
 Max camber    =     0.106241  at x =   0.484

  LE  x,y  =  -0.00000   0.00059  |   Chord =   0.99988
  TE  x,y  =   0.99988   0.00006  |

 Current airfoil nodes set from buffer airfoil nodes ( 200 )

 XFOIL   c>  
 You are working with the buffer airfoil

.GDES   c>  
  i       x        y      angle
   2   0.9990   0.0005    0.013
   3   0.9978   0.0011    0.111
   4   0.9961   0.0020    0.094
   5   0.9938   0.0031    0.145
   6   0.9911   0.0044    0.153
   7   0.9880   0.0059    0.190
   8   0.9843   0.0077    0.208
   9   0.9801   0.0097    0.233
  10   0.9755   0.0119    0.251
  11   0.9704   0.0143    0.283
  12   0.9649   0.0168    0.301
  13   0.9589   0.0196    0.311
  14   0.9524   0.0225    0.349
  15   0.9455   0.0255    0.361
  16   0.9382   0.0287    0.366
  17   0.9304   0.0321    0.400
  18   0.9222   0.0355    0.401
  19   0.9135   0.0390    0.428
  20   0.9045   0.0427    0.425
  21   0.8951   0.0464    0.450
  22   0.8853   0.0502    0.452
  23   0.8751   0.0540    0.473
  24   0.8645   0.0579    0.470
  25   0.8536   0.0618    0.480
  26   0.8423   0.0657    0.489
  27   0.8307   0.0696    0.497
  28   0.8187   0.0735    0.500
  29   0.8065   0.0774    0.501
  30   0.7939   0.0813    0.513
  31   0.7810   0.0852    0.515
  32   0.7679   0.0890    0.511
  33   0.7545   0.0927    0.521
  34   0.7409   0.0964    0.525
  35   0.7270   0.1000    0.522
  36   0.7129   0.1035    0.532
  37   0.6986   0.1070    0.532
  38   0.6841   0.1103    0.537
  39   0.6694   0.1136    0.542
  40   0.6545   0.1167    0.549
  41   0.6395   0.1197    0.553
  42   0.6243   0.1226    0.560
  43   0.6091   0.1254    0.569
  44   0.5937   0.1280    0.576
  45   0.5782   0.1305    0.584
  46   0.5627   0.1328    0.595
  47   0.5471   0.1350    0.609
  48   0.5314   0.1370    0.619
  49   0.5157   0.1389    0.633
  50   0.5000   0.1405    0.647
  51   0.4843   0.1420    0.658
  52   0.4686   0.1433    0.682
  53   0.4529   0.1444    0.693
  54   0.4373   0.1454    0.710
  55   0.4218   0.1461    0.730
  56   0.4063   0.1466    0.751
  57   0.3909   0.1470    0.772
  58   0.3757   0.1471    0.787
  59   0.3605   0.1470    0.812
  60   0.3455   0.1467    0.832
  61   0.3306   0.1462    0.860
  62   0.3159   0.1454    0.874
  63   0.3014   0.1445    0.903
  64   0.2871   0.1433    0.931
  65   0.2730   0.1419    0.946
  66   0.2591   0.1403    0.981
  67   0.2455   0.1386    1.003
  68   0.2321   0.1366    1.031
  69   0.2190   0.1343    1.062
  70   0.2061   0.1319    1.090
  71   0.1935   0.1293    1.123
  72   0.1813   0.1266    1.159
  73   0.1693   0.1236    1.192
  74   0.1577   0.1204    1.241
  75   0.1464   0.1171    1.272
  76   0.1355   0.1136    1.330
  77   0.1249   0.1100    1.383
  78   0.1147   0.1062    1.438
  79   0.1049   0.1023    1.505
  80   0.0955   0.0982    1.578
  81   0.0865   0.0940    1.663
  82   0.0778   0.0897    1.751
  83   0.0696   0.0853    1.866
  84   0.0618   0.0808    1.976
  85   0.0545   0.0761    2.112
  86   0.0476   0.0714    2.274
  87   0.0411   0.0666    2.424
  88   0.0351   0.0618    2.636
  89   0.0296   0.0569    2.833
  90   0.0245   0.0519    3.070
  91   0.0199   0.0468    3.330
  92   0.0157   0.0417    3.613
  93   0.0120   0.0366    3.882
  94   0.0089   0.0314    4.206
  95   0.0062   0.0262    4.484
  96   0.0039   0.0210    4.763
  97   0.0022   0.0158    5.018
  98   0.0010   0.0105    5.192
  99   0.0002   0.0053    5.321
 100   0.0000   0.0000    6.908
 101   0.0002  -0.0033    8.394
 102   0.0010  -0.0067    8.279
 103   0.0022  -0.0099    8.090
 104   0.0039  -0.0130    7.797
 105   0.0062  -0.0159    7.453
 106   0.0089  -0.0187    7.069
 107   0.0120  -0.0213    6.569
 108   0.0157  -0.0236    6.100
 109   0.0199  -0.0256    5.602
 110   0.0245  -0.0273    5.071
 111   0.0296  -0.0287    4.604
 112   0.0351  -0.0298    4.135
 113   0.0411  -0.0305    3.700
 114   0.0476  -0.0308    3.287
 115   0.0545  -0.0308    2.913
 116   0.0618  -0.0303    2.569
 117   0.0696  -0.0295    2.259
 118   0.0778  -0.0284    1.979
 119   0.0865  -0.0268    1.702
 120   0.0955  -0.0249    1.470
 121   0.1049  -0.0227    1.252
 122   0.1147  -0.0202    1.046
 123   0.1249  -0.0173    0.860
 124   0.1355  -0.0142    0.693
 125   0.1464  -0.0109    0.527
 126   0.1577  -0.0073    0.385
 127   0.1693  -0.0035    0.242
 128   0.1813   0.0005    0.124
 129   0.1935   0.0045   -0.007
 130   0.2061   0.0087   -0.110
 131   0.2190   0.0130   -0.212
 132   0.2321   0.0172   -0.313
 133   0.2455   0.0215   -0.400
 134   0.2591   0.0258   -0.484
 135   0.2730   0.0300   -0.554
 136   0.2871   0.0341   -0.628
 137   0.3014   0.0381   -0.687
 138   0.3159   0.0420   -0.743
 139   0.3306   0.0458   -0.791
 140   0.3455   0.0493   -0.837
 141   0.3605   0.0527   -0.871
 142   0.3757   0.0558   -0.900
 143   0.3909   0.0588   -0.925
 144   0.4063   0.0615   -0.945
 145   0.4218   0.0639   -0.951
 146   0.4373   0.0661   -0.959
 147   0.4529   0.0680   -0.963
 148   0.4686   0.0697   -0.956
 149   0.4843   0.0711   -0.947
 150   0.5000   0.0723   -0.941
 151   0.5157   0.0732   -0.919
 152   0.5314   0.0738   -0.902
 153   0.5471   0.0742   -0.880
 154   0.5627   0.0744   -0.860
 155   0.5782   0.0743   -0.831
 156   0.5937   0.0740   -0.803
 157   0.6091   0.0735   -0.781
 158   0.6243   0.0728   -0.750
 159   0.6395   0.0718   -0.723
 160   0.6545   0.0707   -0.697
 161   0.6694   0.0695   -0.670
 162   0.6841   0.0681   -0.639
 163   0.6986   0.0665   -0.625
 164   0.7129   0.0648   -0.593
 165   0.7270   0.0629   -0.571
 166   0.7409   0.0610   -0.548
 167   0.7545   0.0589   -0.538
 168   0.7679   0.0568   -0.505
 169   0.7810   0.0546   -0.497
 170   0.7939   0.0523   -0.479
 171   0.8065   0.0500   -0.462
 172   0.8187   0.0476   -0.448
 173   0.8307   0.0452   -0.435
 174   0.8423   0.0427   -0.424
 175   0.8536   0.0403   -0.414
 176   0.8645   0.0378   -0.392
 177   0.8751   0.0353   -0.391
 178   0.8853   0.0329   -0.376
 179   0.8951   0.0305   -0.370
 180   0.9045   0.0281   -0.352
 181   0.9135   0.0257   -0.344
 182   0.9222   0.0234   -0.334
 183   0.9304   0.0212   -0.316
 184   0.9382   0.0190   -0.301
 185   0.9455   0.0169   -0.299
 186   0.9524   0.0149   -0.279
 187   0.9589   0.0130   -0.260
 188   0.9649   0.0112   -0.246
 189   0.9704   0.0095   -0.224
 190   0.9755   0.0079   -0.218
 191   0.9801   0.0064   -0.186
 192   0.9843   0.0051   -0.185
 193   0.9880   0.0039   -0.149
 194   0.9911   0.0029   -0.143
 195   0.9938   0.0020   -0.095
 196   0.9961   0.0013   -0.109
 197   0.9978   0.0007   -0.070
 198   0.9990   0.0003   -0.024
 199   0.9998   0.0001    0.023

 Maximum panel corner angle =  8.394   at  i,x,y  = 101   0.0002  -0.0033

 Enter corner angle criterion for refinement (deg):   4.197
 Enter type of spline parameter (1=uniform, 2=arclength):   1
 Enter refinement x limits:  -0.10000   1.10000
 Number of points added:           36
 Max thickness =     0.127978  at x =   0.146
 Max camber    =     0.106546  at x =   0.484

 Maximum panel corner angle =  3.700   at  i,x,y  = 149   0.0411  -0.0305

.GDES   c>  
 Buffer airfoil is not identical to current airfoil

 XFOIL   c>  
 Blunt trailing edge.  Gap =  0.00028

 Paneling parameters used...
   Number of panel nodes       160
   Panel bunching parameter    1.000
   TE/LE panel density ratio   0.150
   Refined-area/LE panel density ratio    0.200
   Top    side refined area x/c limits  1.000 1.000
   Bottom side refined area x/c limits  1.000 1.000

 XFOIL   c>  
.OPERi   c>   Current iteration limit:          20

Enter new iteration limit   i>  
Enter new iteration limit   i>  
Enter new iteration limit   i>  
.OPERi   c>  
 M  =    0.0000
 Re =  0.3000E+06

.OPERv   c>  
 Sonic Cp =    -66.86      Sonic Q/Qinf =     9.138


.OPERv   c>  
 Polar  1 newly created for accumulation
 Airfoil archived with polar: 000208                                          

Enter  polar save filename  OR  <return> for no file   s>  
 New polar save file available

Enter  polar dump filename  OR  <return> for no file   s>  
 Polar dump file will NOT be written

 Polar accumulation enabled

.OPERva   c>   Calculating unit vorticity distributions ...
 Calculating wake trajectory ...
 Calculating source influence matrix ...

 Solving BL system ...

 Initializing BL ...
    side            1  ...
 MRCHUE: Inverse mode at  55     Hk =   4.250
 MRCHUE: Inverse mode at  56     Hk =   5.045
 MRCHUE: Inverse mode at  57     Hk =   5.824
 MRCHUE: Inverse mode at  58     Hk =   6.591
 MRCHUE: Inverse mode at  59     Hk =   7.350
 MRCHUE: Inverse mode at  60     Hk =   8.103
 MRCHUE: Inverse mode at  61     Hk =   7.357
 MRCHUE: Inverse mode at  62     Hk =   4.306
 MRCHUE: Inverse mode at  63     Hk =   2.533
 MRCHUE: Convergence failed at  85  side 1    Res =  0.6640E+02
    side            2  ...
 MRCHUE: Inverse mode at  26     Hk =   3.833
 MRCHUE: Inverse mode at  27     Hk =   4.510
 MRCHUE: Inverse mode at  28     Hk =   5.203
 MRCHUE: Inverse mode at  29     Hk =   5.923
 MRCHUE: Inverse mode at  30     Hk =   6.681
 MRCHUE: Inverse mode at  31     Hk =   7.484
 MRCHUE: Inverse mode at  32     Hk =   8.337
 MRCHUE: Inverse mode at  33     Hk =   9.239
 MRCHUE: Inverse mode at  34     Hk =   8.927
 MRCHUE: Inverse mode at  35     Hk =   4.855
 MRCHUE: Inverse mode at  36     Hk =   2.928
 MRCHUE: Inverse mode at  37     Hk =   2.500

 MRCHDU: Convergence failed at  85  side 1    Res =  0.3029E+02
 Side 1  free  transition at x/c =  0.5596   61
 Side 2  free  transition at x/c =  0.1984   34

   1   rms: 0.2541E+00   max: 0.2250E+01   T at   34  2   RLX: 0.383
       a =  2.000      CL =  1.5481
      Cm = -0.2999     CD =  0.01270   =>   CDf =  0.00768    CDp =  0.00502

 Side 1  free  transition at x/c =  0.5780   62
 Side 2  free  transition at x/c =  0.1826   33

   2   rms: 0.1624E+00   max: 0.1382E+01   T at   33  2   RLX: 0.554
       a =  2.000      CL =  1.4943
      Cm = -0.2878     CD =  0.01370   =>   CDf =  0.00711    CDp =  0.00659

 Side 1  free  transition at x/c =  0.5964   63
 Side 2  free  transition at x/c =  0.1718   33

   3   rms: 0.2307E+00   max: -.9122E+00   D at   42  2   RLX: 0.548
       a =  2.000      CL =  1.4765
      Cm = -0.2835     CD =  0.01474   =>   CDf =  0.00669    CDp =  0.00805

 Side 1  free  transition at x/c =  0.6091   64
 Side 2  free  transition at x/c =  0.1742   33

   4   rms: 0.1311E+00   max: -.5698E+00   D at   38  2   RLX: 0.878
       a =  2.000      CL =  1.4606
      Cm = -0.2798     CD =  0.01469   =>   CDf =  0.00690    CDp =  0.00779

 Side 1  free  transition at x/c =  0.6230   64
 Side 2  free  transition at x/c =  0.1742   33

   5   rms: 0.1686E-01   max: 0.1274E+00   T at   33  2
       a =  2.000      CL =  1.4640
      Cm = -0.2802     CD =  0.01527   =>   CDf =  0.00694    CDp =  0.00833

 Side 1  free  transition at x/c =  0.6259   64
 Side 2  free  transition at x/c =  0.1721   33

   6   rms: 0.6094E-02   max: -.8485E-01   C at   64  1
       a =  2.000      CL =  1.4635
      Cm = -0.2801     CD =  0.01529   =>   CDf =  0.00698    CDp =  0.00832

 Side 1  free  transition at x/c =  0.6258   64
 Side 2  free  transition at x/c =  0.1720   33

   7   rms: 0.5406E-02   max: -.8590E-01   C at   64  1
       a =  2.000      CL =  1.4636
      Cm = -0.2801     CD =  0.01529   =>   CDf =  0.00698    CDp =  0.00831

 Side 1  free  transition at x/c =  0.6258   64
 Side 2  free  transition at x/c =  0.1720   33

   8   rms: 0.5380E-02   max: -.8575E-01   C at   64  1
       a =  2.000      CL =  1.4636
      Cm = -0.2801     CD =  0.01529   =>   CDf =  0.00698    CDp =  0.00831

 Side 1  free  transition at x/c =  0.6258   64
 Side 2  free  transition at x/c =  0.1720   33

   9   rms: 0.5382E-02   max: -.8576E-01   C at   64  1
       a =  2.000      CL =  1.4636
      Cm = -0.2801     CD =  0.01529   =>   CDf =  0.00698    CDp =  0.00831

 Side 1  free  transition at x/c =  0.6258   64
 Side 2  free  transition at x/c =  0.1720   33

  10   rms: 0.5382E-02   max: -.8577E-01   C at   64  1
       a =  2.000      CL =  1.4636
      Cm = -0.2801     CD =  0.01529   =>   CDf =  0.00698    CDp =  0.00831

 Side 1  free  transition at x/c =  0.6258   64
 Side 2  free  transition at x/c =  0.1720   33

  11   rms: 0.5382E-02   max: -.8576E-01   C at   64  1
       a =  2.000      CL =  1.4636
      Cm = -0.2801     CD =  0.01529   =>   CDf =  0.00698    CDp =  0.00831

 Side 1  free  transition at x/c =  0.6258   64
 Side 2  free  transition at x/c =  0.1720   33

  12   rms: 0.5383E-02   max: -.8577E-01   C at   64  1
       a =  2.000      CL =  1.4636
      Cm = -0.2801     CD =  0.01529   =>   CDf =  0.00698    CDp =  0.00831

 Side 1  free  transition at x/c =  0.6258   64
 Side 2  free  transition at x/c =  0.1720   33

  13   rms: 0.5382E-02   max: -.8577E-01   C at   64  1
       a =  2.000      CL =  1.4636
      Cm = -0.2801     CD =  0.01529   =>   CDf =  0.00698    CDp =  0.00831

 Side 1  free  transition at x/c =  0.6258   64
 Side 2  free  transition at x/c =  0.1720   33

  14   rms: 0.5382E-02   max: -.8576E-01   C at   64  1
       a =  2.000      CL =  1.4636
      Cm = -0.2801     CD =  0.01529   =>   CDf =  0.00698    CDp =  0.00831

 Side 1  free  transition at x/c =  0.6258   64
 Side 2  free  transition at x/c =  0.1720   33

  15   rms: 0.5382E-02   max: -.8577E-01   C at   64  1
       a =  2.000      CL =  1.4636
      Cm = -0.2801     CD =  0.01529   =>   CDf =  0.00698    CDp =  0.00831

 Side 1  free  transition at x/c =  0.6258   64
 Side 2  free  transition at x/c =  0.1720   33

  16   rms: 0.5382E-02   max: -.8577E-01   C at   64  1
       a =  2.000      CL =  1.4636
      Cm = -0.2801     CD =  0.01529   =>   CDf =  0.00698    CDp =  0.00831

 Side 1  free  transition at x/c =  0.6258   64
 Side 2  free  transition at x/c =  0.1720   33

  17   rms: 0.5382E-02   max: -.8577E-01   C at   64  1
       a =  2.000      CL =  1.4636
      Cm = -0.2801     CD =  0.01529   =>   CDf =  0.00698    CDp =  0.00831

 Side 1  free  transition at x/c =  0.6258   64
 Side 2  free  transition at x/c =  0.1720   33

  18   rms: 0.5382E-02   max: -.8577E-01   C at   64  1
       a =  2.000      CL =  1.4636
      Cm = -0.2801     CD =  0.01529   =>   CDf =  0.00698    CDp =  0.00831

 Side 1  free  transition at x/c =  0.6258   64
 Side 2  free  transition at x/c =  0.1720   33

  19   rms: 0.5382E-02   max: -.8577E-01   C at   64  1
       a =  2.000      CL =  1.4636
      Cm = -0.2801     CD =  0.01529   =>   CDf =  0.00698    CDp =  0.00831

 Side 1  free  transition at x/c =  0.6258   64
 Side 2  free  transition at x/c =  0.1720   33

  20   rms: 0.5383E-02   max: -.8577E-01   C at   64  1
       a =  2.000      CL =  1.4636
      Cm = -0.2801     CD =  0.01529   =>   CDf =  0.00698    CDp =  0.00831

 Side 1  free  transition at x/c =  0.6258   64
 Side 2  free  transition at x/c =  0.1720   33

  21   rms: 0.5382E-02   max: -.8577E-01   C at   64  1
       a =  2.000      CL =  1.4636
      Cm = -0.2801     CD =  0.01529   =>   CDf =  0.00698    CDp =  0.00831

 Side 1  free  transition at x/c =  0.6258   64
 Side 2  free  transition at x/c =  0.1720   33

  22   rms: 0.5383E-02   max: -.8577E-01   C at   64  1
       a =  2.000      CL =  1.4636
      Cm = -0.2801     CD =  0.01529   =>   CDf =  0.00698    CDp =  0.00831

 Side 1  free  transition at x/c =  0.6258   64
 Side 2  free  transition at x/c =  0.1720   33

  23   rms: 0.5382E-02   max: -.8576E-01   C at   64  1
       a =  2.000      CL =  1.4636
      Cm = -0.2801     CD =  0.01529   =>   CDf =  0.00698    CDp =  0.00831

 Side 1  free  transition at x/c =  0.6258   64
 Side 2  free  transition at x/c =  0.1720   33

  24   rms: 0.5382E-02   max: -.8577E-01   C at   64  1
       a =  2.000      CL =  1.4636
      Cm = -0.2801     CD =  0.01529   =>   CDf =  0.00698    CDp =  0.00831

 Side 1  free  transition at x/c =  0.6258   64
 Side 2  free  transition at x/c =  0.1720   33

  25   rms: 0.5382E-02   max: -.8577E-01   C at   64  1
       a =  2.000      CL =  1.4636
      Cm = -0.2801     CD =  0.01529   =>   CDf =  0.00698    CDp =  0.00831
 VISCAL:  Convergence failed
 Calculating wake trajectory ...
 Calculating source influence matrix ...

 Solving BL system ...

 Side 1  free  transition at x/c =  0.6258   64
 Side 2  free  transition at x/c =  0.1720   33

   1   rms: 0.1517E+00   max: -.9346E+00   T at   33  2   RLX: 0.535
       a =  3.000      CL =  1.5110
      Cm = -0.2773     CD =  0.01557   =>   CDf =  0.00700    CDp =  0.00857

 Side 1  free  transition at x/c =  0.6020   63
 Side 2  free  transition at x/c =  0.1810   33

   2   rms: 0.1311E+00   max: -.8726E+00   T at   33  2   RLX: 0.573
       a =  3.000      CL =  1.5412
      Cm = -0.2768     CD =  0.01624   =>   CDf =  0.00675    CDp =  0.00949

 Side 1  free  transition at x/c =  0.5939   64
 Side 2  free  transition at x/c =  0.1906   33

   3   rms: 0.7111E-01   max: 0.7323E+00   D at   33  2
       a =  3.000      CL =  1.5659
      Cm = -0.2774     CD =  0.01589   =>   CDf =  0.00710    CDp =  0.00878

 Side 1  free  transition at x/c =  0.5879   64
 Side 2  free  transition at x/c =  0.1929   33

   4   rms: 0.9712E-02   max: 0.7023E-01   D at   34  2
       a =  3.000      CL =  1.5659
      Cm = -0.2774     CD =  0.01591   =>   CDf =  0.00708    CDp =  0.00883

 Side 1  free  transition at x/c =  0.5881   64
 Side 2  free  transition at x/c =  0.1925   33

   5   rms: 0.1707E-03   max: 0.1838E-02   D at   34  2
       a =  3.000      CL =  1.5659
      Cm = -0.2775     CD =  0.01591   =>   CDf =  0.00706    CDp =  0.00885

 Side 1  free  transition at x/c =  0.5881   64
 Side 2  free  transition at x/c =  0.1925   33

   6   rms: 0.9765E-06   max: 0.7681E-05   D at   65  1
       a =  3.000      CL =  1.5659
      Cm = -0.2775     CD =  0.01591   =>   CDf =  0.00706    CDp =  0.00885

 Point added to stored polar  1
 Point written to save file  000208M0.1.log                                  
 Dump file unspecified or not available
 Calculating wake trajectory ...
 Calculating source influence matrix ...

 Solving BL system ...

 Side 1  free  transition at x/c =  0.5881   64
 Side 2  free  transition at x/c =  0.1925   33

   1   rms: 0.1598E+00   max: -.1012E+01   T at   33  2   RLX: 0.494
       a =  4.000      CL =  1.6175
      Cm = -0.2764     CD =  0.01647   =>   CDf =  0.00707    CDp =  0.00941

 Side 1  free  transition at x/c =  0.5715   63
 Side 2  free  transition at x/c =  0.2027   34

   2   rms: 0.1792E+00   max: -.1190E+01   T at   34  2   RLX: 0.420
       a =  4.000      CL =  1.6389
      Cm = -0.2759     CD =  0.01644   =>   CDf =  0.00688    CDp =  0.00957

 Side 1  free  transition at x/c =  0.5630   63
 Side 2  free  transition at x/c =  0.2099   33

   3   rms: 0.8197E-01   max: -.3013E+00   D at   37  2
       a =  4.000      CL =  1.6616
      Cm = -0.2737     CD =  0.01663   =>   CDf =  0.00707    CDp =  0.00956

 Side 1  free  transition at x/c =  0.5485   63
 Side 2  free  transition at x/c =  0.2160   33

   4   rms: 0.1728E-01   max: -.8350E-01   D at   33  2
       a =  4.000      CL =  1.6625
      Cm = -0.2738     CD =  0.01678   =>   CDf =  0.00722    CDp =  0.00956

 Side 1  free  transition at x/c =  0.5503   63
 Side 2  free  transition at x/c =  0.2161   33

   5   rms: 0.6704E-03   max: -.5694E-02   D at   64  1
       a =  4.000      CL =  1.6629
      Cm = -0.2739     CD =  0.01679   =>   CDf =  0.00718    CDp =  0.00961

 Side 1  free  transition at x/c =  0.5501   63
 Side 2  free  transition at x/c =  0.2161   33

   6   rms: 0.4030E-05   max: -.2451E-04   D at   64  1
       a =  4.000      CL =  1.6629
      Cm = -0.2739     CD =  0.01679   =>   CDf =  0.00718    CDp =  0.00960

 Point added to stored polar  1
 Point written to save file  000208M0.1.log                                  
 Dump file unspecified or not available
 Calculating wake trajectory ...
 Calculating source influence matrix ...

 Solving BL system ...

 Side 1  free  transition at x/c =  0.5501   63
 Side 2  free  transition at x/c =  0.2161   33

   1   rms: 0.1611E+00   max: -.1069E+01   T at   33  2   RLX: 0.468
       a =  5.000      CL =  1.7069
      Cm = -0.2720     CD =  0.01735   =>   CDf =  0.00695    CDp =  0.01041

 Side 1  free  transition at x/c =  0.5340   63
 Side 2  free  transition at x/c =  0.2327   33

   2   rms: 0.1025E+00   max: 0.9312E+00   D at   33  2
       a =  5.000      CL =  1.7509
      Cm = -0.2687     CD =  0.01773   =>   CDf =  0.00723    CDp =  0.01050

 Side 1  free  transition at x/c =  0.5117   62
 Side 2  free  transition at x/c =  0.2417   34

   3   rms: 0.2395E-01   max: -.2381E+00   D at   62  1
       a =  5.000      CL =  1.7493
      Cm = -0.2685     CD =  0.01788   =>   CDf =  0.00734    CDp =  0.01054

 Side 1  free  transition at x/c =  0.5135   62
 Side 2  free  transition at x/c =  0.2415   34

   4   rms: 0.3851E-02   max: 0.3456E-01   C at   62  1
       a =  5.000      CL =  1.7519
      Cm = -0.2690     CD =  0.01793   =>   CDf =  0.00723    CDp =  0.01070

 Side 1  free  transition at x/c =  0.5123   62
 Side 2  free  transition at x/c =  0.2418   34

   5   rms: 0.6936E-04   max: -.6737E-03   D at   63  1
       a =  5.000      CL =  1.7518
      Cm = -0.2690     CD =  0.01793   =>   CDf =  0.00726    CDp =  0.01067

 Point added to stored polar  1
 Point written to save file  000208M0.1.log                                  
 Dump file unspecified or not available
 Calculating wake trajectory ...
 Calculating source influence matrix ...

 Solving BL system ...

 Side 1  free  transition at x/c =  0.5123   62
 Side 2  free  transition at x/c =  0.2417   34

   1   rms: 0.1577E+00   max: -.1218E+01   T at   34  2   RLX: 0.410
       a =  6.000      CL =  1.7851
      Cm = -0.2665     CD =  0.01850   =>   CDf =  0.00701    CDp =  0.01149

 Side 1  free  transition at x/c =  0.4975   62
 Side 2  free  transition at x/c =  0.2519   33

   2   rms: 0.1076E+00   max: -.7079E+00   T at   33  2   RLX: 0.706
       a =  6.000      CL =  1.8122
      Cm = -0.2624     CD =  0.01929   =>   CDf =  0.00728    CDp =  0.01201

 Side 1  free  transition at x/c =  0.4805   61
 Side 2  free  transition at x/c =  0.2681   34

   3   rms: 0.4354E-01   max: 0.5631E+00   D at   34  2
       a =  6.000      CL =  1.8223
      Cm = -0.2607     CD =  0.01950   =>   CDf =  0.00735    CDp =  0.01215

 Side 1  free  transition at x/c =  0.4757   61
 Side 2  free  transition at x/c =  0.2699   34

   4   rms: 0.3800E-02   max: 0.3306E-01   D at   35  2
       a =  6.000      CL =  1.8245
      Cm = -0.2612     CD =  0.01952   =>   CDf =  0.00725    CDp =  0.01227

 Side 1  free  transition at x/c =  0.4755   61
 Side 2  free  transition at x/c =  0.2698   34

   5   rms: 0.8045E-04   max: 0.6601E-03   D at   35  2
       a =  6.000      CL =  1.8245
      Cm = -0.2612     CD =  0.01952   =>   CDf =  0.00725    CDp =  0.01227

 Point added to stored polar  1
 Point written to save file  000208M0.1.log                                  
 Dump file unspecified or not available
 Calculating wake trajectory ...
 Calculating source influence matrix ...

 Solving BL system ...

 Side 1  free  transition at x/c =  0.4755   61
 Side 2  free  transition at x/c =  0.2698   34

   1   rms: 0.1425E+00   max: -.9610E+00   T at   34  2   RLX: 0.520
       a =  7.000      CL =  1.8599
      Cm = -0.2568     CD =  0.02047   =>   CDf =  0.00699    CDp =  0.01348

 Side 1  free  transition at x/c =  0.4555   61
 Side 2  free  transition at x/c =  0.2880   34

   2   rms: 0.6802E-01   max: 0.4464E+00   D at   34  2
       a =  7.000      CL =  1.8895
      Cm = -0.2525     CD =  0.02150   =>   CDf =  0.00732    CDp =  0.01418

 Side 1  free  transition at x/c =  0.4378   60
 Side 2  free  transition at x/c =  0.3003   35

   3   rms: 0.1435E-01   max: -.1219E+00   D at   60  1
       a =  7.000      CL =  1.8902
      Cm = -0.2527     CD =  0.02166   =>   CDf =  0.00733    CDp =  0.01433

 Side 1  free  transition at x/c =  0.4392   60
 Side 2  free  transition at x/c =  0.3021   35

   4   rms: 0.2036E-02   max: 0.1191E-01   C at   60  1
       a =  7.000      CL =  1.8916
      Cm = -0.2530     CD =  0.02165   =>   CDf =  0.00724    CDp =  0.01442

 Side 1  free  transition at x/c =  0.4387   60
 Side 2  free  transition at x/c =  0.3023   35

   5   rms: 0.1047E-04   max: -.9128E-04   D at   60  1
       a =  7.000      CL =  1.8916
      Cm = -0.2530     CD =  0.02166   =>   CDf =  0.00725    CDp =  0.01441

 Point added to stored polar  1
 Point written to save file  000208M0.1.log                                  
 Dump file unspecified or not available
 Calculating wake trajectory ...
 Calculating source influence matrix ...

 Solving BL system ...

 Side 1  free  transition at x/c =  0.4387   60
 Side 2  free  transition at x/c =  0.3023   35

   1   rms: 0.1449E+00   max: -.1045E+01   T at   35  2   RLX: 0.478
       a =  8.000      CL =  1.9223
      Cm = -0.2490     CD =  0.02274   =>   CDf =  0.00697    CDp =  0.01577

 Side 1  free  transition at x/c =  0.4194   60
 Side 2  free  transition at x/c =  0.3179   35

   2   rms: 0.1319E+00   max: -.1126E+01   T at   35  2   RLX: 0.444
       a =  8.000      CL =  1.9368
      Cm = -0.2472     CD =  0.02364   =>   CDf =  0.00736    CDp =  0.01627

 Side 1  free  transition at x/c =  0.4107   60
 Side 2  free  transition at x/c =  0.3285   35

   3   rms: 0.6643E-01   max: -.4366E+00   T at   35  2
       a =  8.000      CL =  1.9508
      Cm = -0.2441     CD =  0.02450   =>   CDf =  0.00728    CDp =  0.01722

 Side 1  free  transition at x/c =  0.4026   59
 Side 2  free  transition at x/c =  0.3471   36

   4   rms: 0.3012E-01   max: 0.3707E+00   D at   36  2
       a =  8.000      CL =  1.9508
      Cm = -0.2442     CD =  0.02448   =>   CDf =  0.00719    CDp =  0.01729

 Side 1  free  transition at x/c =  0.4022   59
 Side 2  free  transition at x/c =  0.3439   36

   5   rms: 0.5747E-02   max: -.5019E-01   D at   38  2
       a =  8.000      CL =  1.9508
      Cm = -0.2442     CD =  0.02449   =>   CDf =  0.00719    CDp =  0.01730

 Side 1  free  transition at x/c =  0.4022   59
 Side 2  free  transition at x/c =  0.3419   36

   6   rms: 0.2823E-03   max: -.4618E-02   D at   38  2
       a =  8.000      CL =  1.9508
      Cm = -0.2442     CD =  0.02449   =>   CDf =  0.00720    CDp =  0.01729

 Side 1  free  transition at x/c =  0.4022   59
 Side 2  free  transition at x/c =  0.3419   36

   7   rms: 0.1229E-05   max: -.1290E-04   D at   38  2
       a =  8.000      CL =  1.9508
      Cm = -0.2442     CD =  0.02449   =>   CDf =  0.00720    CDp =  0.01729

 Point added to stored polar  1
 Point written to save file  000208M0.1.log                                  
 Dump file unspecified or not available
 Calculating wake trajectory ...
 Calculating source influence matrix ...

 Solving BL system ...

 Side 1  free  transition at x/c =  0.4022   59
 Side 2  free  transition at x/c =  0.3419   36

   1   rms: 0.1465E+00   max: -.1089E+01   T at   36  2   RLX: 0.459
       a =  9.000      CL =  1.9791
      Cm = -0.2406     CD =  0.02577   =>   CDf =  0.00690    CDp =  0.01886

 Side 1  free  transition at x/c =  0.3829   59
 Side 2  free  transition at x/c =  0.3645   36

   2   rms: 0.8005E-01   max: -.5647E+00   T at   36  2   RLX: 0.885
       a =  9.000      CL =  2.0039
      Cm = -0.2363     CD =  0.02751   =>   CDf =  0.00726    CDp =  0.02025

 Side 1  free  transition at x/c =  0.3655   58
 Side 2  free  transition at x/c =  0.3899   38

   3   rms: 0.3368E-01   max: -.2332E+00   C at   38  2
       a =  9.000      CL =  2.0018
      Cm = -0.2351     CD =  0.02818   =>   CDf =  0.00725    CDp =  0.02093

 Side 1  free  transition at x/c =  0.3661   58
 Side 2  free  transition at x/c =  0.4002   38

   4   rms: 0.6550E-02   max: 0.8318E-01   C at   38  2
       a =  9.000      CL =  2.0015
      Cm = -0.2350     CD =  0.02819   =>   CDf =  0.00709    CDp =  0.02109

 Side 1  free  transition at x/c =  0.3659   58
 Side 2  free  transition at x/c =  0.3969   38

   5   rms: 0.4514E-03   max: -.6464E-02   D at   38  2
       a =  9.000      CL =  2.0015
      Cm = -0.2350     CD =  0.02819   =>   CDf =  0.00711    CDp =  0.02108

 Side 1  free  transition at x/c =  0.3659   58
 Side 2  free  transition at x/c =  0.3969   38

   6   rms: 0.2345E-05   max: 0.2966E-04   D at   38  2
       a =  9.000      CL =  2.0015
      Cm = -0.2350     CD =  0.02819   =>   CDf =  0.00711    CDp =  0.02108

 Point added to stored polar  1
 Point written to save file  000208M0.1.log                                  
 Dump file unspecified or not available
 Calculating wake trajectory ...
 Calculating source influence matrix ...

 Solving BL system ...

 Side 1  free  transition at x/c =  0.3659   58
 Side 2  free  transition at x/c =  0.3969   38

   1   rms: 0.1620E+00   max: -.1198E+01   T at   38  2   RLX: 0.417
       a = 10.000      CL =  2.0271
      Cm = -0.2321     CD =  0.02951   =>   CDf =  0.00679    CDp =  0.02271

 Side 1  free  transition at x/c =  0.3478   58
 Side 2  free  transition at x/c =  0.4268   39

   2   rms: 0.1564E+00   max: -.1149E+01   C at   39  2   RLX: 0.435
       a = 10.000      CL =  2.0405
      Cm = -0.2305     CD =  0.03069   =>   CDf =  0.00719    CDp =  0.02350

 Side 1  free  transition at x/c =  0.3395   58
 Side 2  free  transition at x/c =  0.4554   40

   3   rms: 0.8428E-01   max: -.1070E+01   C at   40  2   RLX: 0.467
       a = 10.000      CL =  2.0438
      Cm = -0.2285     CD =  0.03164   =>   CDf =  0.00701    CDp =  0.02463

 Side 1  free  transition at x/c =  0.3349   58
 Side 2  free  transition at x/c =  0.4757   41

   4   rms: 0.7736E-01   max: -.1223E+01   C at   41  2   RLX: 0.409
       a = 10.000      CL =  2.0448
      Cm = -0.2276     CD =  0.03209   =>   CDf =  0.00696    CDp =  0.02513

 Side 1  free  transition at x/c =  0.3329   58
 Side 2  free  transition at x/c =  0.4950   42

   5   rms: 0.1246E+00   max: -.2332E+01   C at   42  2   RLX: 0.214
       a = 10.000      CL =  2.0453
      Cm = -0.2273     CD =  0.03223   =>   CDf =  0.00692    CDp =  0.02530

 Side 1  free  transition at x/c =  0.3323   58
 Side 2  free  transition at x/c =  0.5015   43

   6   rms: 0.1062E+00   max: -.1671E+01   C at   43  2   RLX: 0.299
       a = 10.000      CL =  2.0458
      Cm = -0.2271     CD =  0.03238   =>   CDf =  0.00694    CDp =  0.02543

 Side 1  free  transition at x/c =  0.3317   58
 Side 2  free  transition at x/c =  0.5205   44

   7   rms: 0.1443E+00   max: -.2557E+01   C at   44  2   RLX: 0.196
       a = 10.000      CL =  2.0464
      Cm = -0.2270     CD =  0.03245   =>   CDf =  0.00691    CDp =  0.02553

 Side 1  free  transition at x/c =  0.3314   58
 Side 2  free  transition at x/c =  0.5386   44

   8   rms: 0.1209E+00   max: -.2268E+01   C at   44  2   RLX: 0.220
       a = 10.000      CL =  2.0466
      Cm = -0.2269     CD =  0.03252   =>   CDf =  0.00688    CDp =  0.02564

 Side 1  free  transition at x/c =  0.3311   58
 Side 2 forced transition at x/c =  1.0001   69

   9   rms: 0.5908E-01   max: -.4572E+00   n at   68  2
       a = 10.000      CL =  2.0420
      Cm = -0.2253     CD =  0.03243   =>   CDf =  0.00655    CDp =  0.02588

 Side 1  free  transition at x/c =  0.3306   58
 Side 2 forced transition at x/c =  1.0001   69

  10   rms: 0.9877E-02   max: 0.7143E-01   D at   40  2
       a = 10.000      CL =  2.0417
      Cm = -0.2252     CD =  0.03243   =>   CDf =  0.00658    CDp =  0.02584

 Side 1  free  transition at x/c =  0.3306   58
 Side 2 forced transition at x/c =  1.0001   69

  11   rms: 0.1254E-02   max: 0.8779E-02   D at   40  2
       a = 10.000      CL =  2.0417
      Cm = -0.2252     CD =  0.03243   =>   CDf =  0.00657    CDp =  0.02585

 Side 1  free  transition at x/c =  0.3306   58
 Side 2 forced transition at x/c =  1.0001   69

  12   rms: 0.1917E-04   max: 0.1351E-03   D at   39  2
       a = 10.000      CL =  2.0417
      Cm = -0.2252     CD =  0.03243   =>   CDf =  0.00657    CDp =  0.02585

 Point added to stored polar  1
 Point written to save file  000208M0.1.log                                  
 Dump file unspecified or not available
 Calculating wake trajectory ...
 Calculating source influence matrix ...

 Solving BL system ...

 Side 1  free  transition at x/c =  0.3306   58
 Side 2 forced transition at x/c =  1.0001   69

   1   rms: 0.1943E+00   max: -.6495E+00   D at   58  1   RLX: 0.770
       a = 11.000      CL =  2.0613
      Cm = -0.2167     CD =  0.03745   =>   CDf =  0.00625    CDp =  0.03120

 Side 1  free  transition at x/c =  0.3060   57
 Side 2 forced transition at x/c =  1.0001   68

   2   rms: 0.4463E-01   max: 0.2939E+00   D at   58  1
       a = 11.000      CL =  2.0765
      Cm = -0.2159     CD =  0.03827   =>   CDf =  0.00662    CDp =  0.03165

 Side 1  free  transition at x/c =  0.2948   57
 Side 2 forced transition at x/c =  1.0001   68

   3   rms: 0.7331E-02   max: 0.6138E-01   D at   58  1
       a = 11.000      CL =  2.0725
      Cm = -0.2155     CD =  0.03845   =>   CDf =  0.00664    CDp =  0.03182

 Side 1  free  transition at x/c =  0.2961   57
 Side 2 forced transition at x/c =  1.0001   68

   4   rms: 0.3244E-03   max: -.3638E-02   D at   58  1
       a = 11.000      CL =  2.0725
      Cm = -0.2155     CD =  0.03845   =>   CDf =  0.00658    CDp =  0.03187

 Side 1  free  transition at x/c =  0.2961   57
 Side 2 forced transition at x/c =  1.0001   68

   5   rms: 0.5357E-05   max: -.2208E-04   D at   82  1
       a = 11.000      CL =  2.0725
      Cm = -0.2155     CD =  0.03845   =>   CDf =  0.00658    CDp =  0.03187

 Point added to stored polar  1
 Point written to save file  000208M0.1.log                                  
 Dump file unspecified or not available
 Calculating wake trajectory ...
 Calculating source influence matrix ...

 Solving BL system ...

 Side 1  free  transition at x/c =  0.2961   57
 Side 2 forced transition at x/c =  1.0001   68

   1   rms: 0.1376E+00   max: -.5950E+00   D at   57  1   RLX: 0.693
       a = 12.000      CL =  2.0824
      Cm = -0.2081     CD =  0.04407   =>   CDf =  0.00624    CDp =  0.03783

 Side 1  free  transition at x/c =  0.2751   57
 Side 2 forced transition at x/c =  1.0001   67

   2   rms: 0.9797E-01   max: 0.1484E+01   T at    2  1   RLX: 0.718
       a = 12.000      CL =  2.0857
      Cm = -0.2062     CD =  0.04593   =>   CDf =  0.00661    CDp =  0.03932

 Side 1  free  transition at x/c =  0.2671   56
 Side 2 forced transition at x/c =  1.0001   67

   3   rms: 0.1812E-01   max: -.1684E+00   D at   56  1
       a = 12.000      CL =  2.0956
      Cm = -0.2066     CD =  0.04593   =>   CDf =  0.00653    CDp =  0.03940

 Side 1  free  transition at x/c =  0.2629   56
 Side 2 forced transition at x/c =  1.0001   67

   4   rms: 0.1242E-02   max: 0.1781E-01   D at   57  1
       a = 12.000      CL =  2.0946
      Cm = -0.2065     CD =  0.04600   =>   CDf =  0.00653    CDp =  0.03947

 Side 1  free  transition at x/c =  0.2632   56
 Side 2 forced transition at x/c =  1.0001   67

   5   rms: 0.2116E-04   max: -.2739E-03   D at   57  1
       a = 12.000      CL =  2.0947
      Cm = -0.2065     CD =  0.04600   =>   CDf =  0.00652    CDp =  0.03948

 Point added to stored polar  1
 Point written to save file  000208M0.1.log                                  
 Dump file unspecified or not available
 Calculating wake trajectory ...
 Calculating source influence matrix ...

 Solving BL system ...

 Side 1  free  transition at x/c =  0.2631   56
 Side 2 forced transition at x/c =  1.0001   67

   1   rms: 0.1299E+00   max: -.5233E+00   D at   56  1   RLX: 0.613
       a = 13.000      CL =  2.1019
      Cm = -0.2011     CD =  0.05184   =>   CDf =  0.00654    CDp =  0.04530

 Side 1  free  transition at x/c =  0.2456   55
 Side 2 forced transition at x/c =  1.0001   67

   2   rms: 0.5055E-01   max: -.3989E+00   D at   55  1
       a = 13.000      CL =  2.1097
      Cm = -0.1986     CD =  0.05520   =>   CDf =  0.00611    CDp =  0.04909

 Side 1  free  transition at x/c =  0.2345   55
 Side 2 forced transition at x/c =  1.0001   66

   3   rms: 0.8115E-02   max: -.8753E-01   D at   55  1
       a = 13.000      CL =  2.1073
      Cm = -0.1984     CD =  0.05524   =>   CDf =  0.00644    CDp =  0.04880

 Side 1  free  transition at x/c =  0.2331   55
 Side 2 forced transition at x/c =  1.0001   66

   4   rms: 0.1029E-02   max: -.8749E-02   D at    4  1
       a = 13.000      CL =  2.1076
      Cm = -0.1984     CD =  0.05522   =>   CDf =  0.00643    CDp =  0.04879

 Side 1  free  transition at x/c =  0.2330   55
 Side 2 forced transition at x/c =  1.0001   66

   5   rms: 0.4824E-04   max: -.3425E-03   D at   80  2
       a = 13.000      CL =  2.1077
      Cm = -0.1984     CD =  0.05523   =>   CDf =  0.00643    CDp =  0.04880

 Point added to stored polar  1
 Point written to save file  000208M0.1.log                                  
 Dump file unspecified or not available
 Calculating wake trajectory ...
 Calculating source influence matrix ...

 Solving BL system ...

 Side 1  free  transition at x/c =  0.2330   55
 Side 2 forced transition at x/c =  1.0001   66

   1   rms: 0.1224E+00   max: 0.4181E+00   D at   79  1   RLX: 0.547
       a = 14.000      CL =  2.1159
      Cm = -0.1947     CD =  0.06088   =>   CDf =  0.00645    CDp =  0.05443

 Side 1  free  transition at x/c =  0.2173   54
 Side 2 forced transition at x/c =  1.0001   66

   2   rms: 0.5361E-01   max: -.3026E+00   D at   54  1
       a = 14.000      CL =  2.1194
      Cm = -0.1919     CD =  0.06576   =>   CDf =  0.00645    CDp =  0.05931

 Side 1  free  transition at x/c =  0.2051   53
 Side 2 forced transition at x/c =  1.0001   66

   3   rms: 0.1181E-01   max: -.8383E-01   C at   53  1
       a = 14.000      CL =  2.1081
      Cm = -0.1912     CD =  0.06658   =>   CDf =  0.00641    CDp =  0.06017

 Side 1  free  transition at x/c =  0.2061   53
 Side 2 forced transition at x/c =  1.0001   66

   4   rms: 0.7902E-03   max: -.6552E-02   D at   79  1
       a = 14.000      CL =  2.1088
      Cm = -0.1912     CD =  0.06644   =>   CDf =  0.00634    CDp =  0.06010

 Side 1  free  transition at x/c =  0.2059   53
 Side 2 forced transition at x/c =  1.0001   66

   5   rms: 0.4874E-04   max: -.3254E-03   D at   80  2
       a = 14.000      CL =  2.1088
      Cm = -0.1912     CD =  0.06645   =>   CDf =  0.00634    CDp =  0.06011

 Point added to stored polar  1
 Point written to save file  000208M0.1.log                                  
 Dump file unspecified or not available
 Calculating wake trajectory ...
 Calculating source influence matrix ...

 Solving BL system ...

 Side 1  free  transition at x/c =  0.2059   53
 Side 2 forced transition at x/c =  1.0001   66

   1   rms: 0.1154E+00   max: 0.4273E+00   T at   53  1   RLX: 0.491
       a = 15.000      CL =  2.1194
      Cm = -0.1890     CD =  0.07171   =>   CDf =  0.00596    CDp =  0.06575

 Side 1  free  transition at x/c =  0.1915   53
 Side 2 forced transition at x/c =  1.0001   65

   2   rms: 0.5815E-01   max: -.3038E+00   C at   53  1
       a = 15.000      CL =  2.1193
      Cm = -0.1866     CD =  0.07836   =>   CDf =  0.00641    CDp =  0.07195

 Side 1  free  transition at x/c =  0.1800   53
 Side 2 forced transition at x/c =  1.0001   65

   3   rms: 0.1552E-01   max: 0.8531E-01   D at   77  1
       a = 15.000      CL =  2.1050
      Cm = -0.1860     CD =  0.07939   =>   CDf =  0.00628    CDp =  0.07312

 Side 1  free  transition at x/c =  0.1817   53
 SidGot result {'DD': 0.01516, 'Dmin': 0.01591, 'LL': -1.4569}
Completed successfully in 3.63 seconds. [{'DD': 0.01516, 'Dmin': 0.01591, 'LL': -1.4569}]
e 2 forced transition at x/c =  1.0001   65

   4   rms: 0.6279E-03   max: -.6766E-02   D at   54  1
       a = 15.000      CL =  2.1046
      Cm = -0.1859     CD =  0.07923   =>   CDf =  0.00617    CDp =  0.07307

 Side 1  free  transition at x/c =  0.1816   53
 Side 2 forced transition at x/c =  1.0001   65

   5   rms: 0.3159E-04   max: -.1485E-03   D at   83  2
       a = 15.000      CL =  2.1047
      Cm = -0.1859     CD =  0.07924   =>   CDf =  0.00617    CDp =  0.07307

 Point added to stored polar  1
 Point written to save file  000208M0.1.log                                  
 Dump file unspecified or not available

.OPERva   c>  
 XFOIL   c>  
