Job launching after 0.34 seconds in submission.
Running python job.
Changed into dir /home/simonx/Documents/Udacity/Projects/capstone/PESM_NSGA2_CST_XFoil
Importing evaluationFunctionXFoil.py
Running evaluationFunctionXFoil.main()
0
1
2
0.04
resp: 
 ===================================================
  XFOIL Version 6.97
  Copyright (C) 2000   Mark Drela, Harold Youngren

  This software comes with ABSOLUTELY NO WARRANTY,
    subject to the GNU General Public License.

  Caveat computor
 ===================================================

 File  xfoil.def  not found

   QUIT    Exit program

  .OPER    Direct operating point(s)
  .MDES    Complex mapping design routine
  .QDES    Surface speed design routine
  .GDES    Geometry design routine

   SAVE f  Write airfoil to labeled coordinate file
   PSAV f  Write airfoil to plain coordinate file
   ISAV f  Write airfoil to ISES coordinate file
   MSAV f  Write airfoil to MSES coordinate file
   REVE    Reverse written-airfoil node ordering
   DELI i  Change written-airfoil file delimiters

   LOAD f  Read buffer airfoil from coordinate file
   NACA i  Set NACA 4,5-digit airfoil and buffer airfoil
   INTE    Set buffer airfoil by interpolating two airfoils
   NORM    Buffer airfoil normalization toggle
   HALF    Halve the number of points in buffer airfoil
   XYCM rr Change CM reference location, currently  0.25000 0.00000

   BEND    Display structural properties of current airfoil

   PCOP    Set current-airfoil panel nodes directly from buffer airfoil points
   PANE    Set current-airfoil panel nodes ( 160 ) based on curvature
  .PPAR    Show/change paneling

  .PLOP    Plotting options

   WDEF f  Write  current-settings file
   RDEF f  Reread current-settings file
   NAME s  Specify new airfoil name
   NINC    Increment name version number

   Z       Zoom    | (available in all menus)
   U       Unzoom  | 

 XFOIL   c>   ...............................................

  G raphics-enable flag:        T
  S ize of plot object          10.00"
  A spect ratio of plot object   0.5500
  P age dimensions              11.00 x  8.50"
  M argins from page edges       0.00",  0.00"
  F ont size (relative)          0.0150
  W indow/screen size fraction   0.8000
  B lowup input method:        Cursor    
  O rientation of plot:        Landscape 
  C olor PostScript output?     F

      Option, Value   (or <Return>)    c>   ...............................................

  G raphics-enable flag:        F
  S ize of plot object          10.00"
  A spect ratio of plot object   0.5500
  P age dimensions              11.00 x  8.50"
  M argins from page edges       0.00",  0.00"
  F ont size (relative)          0.0150
  W indow/screen size fraction   0.8000
  B lowup input method:        Cursor    
  O rientation of plot:        Landscape 
  C olor PostScript output?     F

      Option, Value   (or <Return>)    c>  
 XFOIL   c>  
 Labeled airfoil file.  Name:  000142                                          

 Number of input coordinate points: 200
 Clockwise ordering
 Max thickness =     0.161729  at x =   0.157
 Max camber    =     0.069813  at x =   0.531

  LE  x,y  =  -0.00002   0.00156  |   Chord =   0.99990
  TE  x,y  =   0.99988   0.00006  |

 Current airfoil nodes set from buffer airfoil nodes ( 200 )

 XFOIL   c>  
 You are working with the buffer airfoil

.GDES   c>  
  i       x        y      angle
   2   0.9990   0.0005    0.075
   3   0.9978   0.0011    0.085
   4   0.9961   0.0020    0.058
   5   0.9938   0.0031    0.139
   6   0.9911   0.0044    0.134
   7   0.9880   0.0059    0.150
   8   0.9843   0.0077    0.199
   9   0.9801   0.0097    0.216
  10   0.9755   0.0119    0.228
  11   0.9704   0.0143    0.272
  12   0.9649   0.0169    0.283
  13   0.9589   0.0197    0.317
  14   0.9524   0.0226    0.340
  15   0.9455   0.0257    0.372
  16   0.9382   0.0289    0.394
  17   0.9304   0.0323    0.425
  18   0.9222   0.0358    0.447
  19   0.9135   0.0393    0.475
  20   0.9045   0.0430    0.495
  21   0.8951   0.0467    0.536
  22   0.8853   0.0504    0.547
  23   0.8751   0.0542    0.582
  24   0.8645   0.0580    0.592
  25   0.8536   0.0618    0.615
  26   0.8423   0.0656    0.645
  27   0.8307   0.0694    0.652
  28   0.8187   0.0731    0.670
  29   0.8065   0.0767    0.687
  30   0.7939   0.0803    0.690
  31   0.7810   0.0838    0.700
  32   0.7679   0.0872    0.701
  33   0.7545   0.0905    0.707
  34   0.7409   0.0937    0.705
  35   0.7270   0.0968    0.696
  36   0.7129   0.0997    0.688
  37   0.6986   0.1025    0.676
  38   0.6841   0.1052    0.662
  39   0.6694   0.1077    0.641
  40   0.6545   0.1101    0.619
  41   0.6395   0.1123    0.599
  42   0.6243   0.1144    0.567
  43   0.6091   0.1163    0.539
  44   0.5937   0.1181    0.515
  45   0.5782   0.1198    0.475
  46   0.5627   0.1214    0.445
  47   0.5471   0.1229    0.415
  48   0.5314   0.1242    0.380
  49   0.5157   0.1254    0.345
  50   0.5000   0.1266    0.312
  51   0.4843   0.1276    0.287
  52   0.4686   0.1286    0.259
  53   0.4529   0.1295    0.232
  54   0.4373   0.1304    0.212
  55   0.4218   0.1311    0.196
  56   0.4063   0.1319    0.181
  57   0.3909   0.1325    0.173
  58   0.3757   0.1331    0.174
  59   0.3605   0.1337    0.178
  60   0.3455   0.1342    0.192
  61   0.3306   0.1347    0.206
  62   0.3159   0.1351    0.241
  63   0.3014   0.1354    0.270
  64   0.2871   0.1357    0.313
  65   0.2730   0.1359    0.376
  66   0.2591   0.1360    0.434
  67   0.2455   0.1359    0.506
  68   0.2321   0.1358    0.600
  69   0.2190   0.1355    0.694
  70   0.2061   0.1351    0.799
  71   0.1935   0.1345    0.923
  72   0.1813   0.1338    1.053
  73   0.1693   0.1328    1.205
  74   0.1577   0.1316    1.357
  75   0.1464   0.1302    1.527
  76   0.1355   0.1285    1.713
  77   0.1249   0.1266    1.907
  78   0.1147   0.1243    2.099
  79   0.1049   0.1218    2.320
  80   0.0955   0.1190    2.523
  81   0.0865   0.1158    2.744
  82   0.0778   0.1123    2.945
  83   0.0696   0.1085    3.150
  84   0.0618   0.1043    3.338
  85   0.0545   0.0998    3.500
  86   0.0476   0.0950    3.659
  87   0.0411   0.0898    3.755
  88   0.0351   0.0843    3.856
  89   0.0296   0.0785    3.899
  90   0.0245   0.0724    3.938
  91   0.0199   0.0661    3.931
  92   0.0157   0.0594    3.925
  93   0.0120   0.0525    3.867
  94   0.0089   0.0455    3.846
  95   0.0062   0.0382    3.784
  96   0.0039   0.0307    3.737
  97   0.0022   0.0232    3.702
  98   0.0010   0.0155    3.662
  99   0.0002   0.0078    3.644
 100   0.0000   0.0000    6.436
 101   0.0002  -0.0031    9.079
 102   0.0010  -0.0061    8.706
 103   0.0022  -0.0091    8.175
 104   0.0039  -0.0120    7.489
 105   0.0062  -0.0148    6.809
 106   0.0089  -0.0175    6.148
 107   0.0120  -0.0201    5.505
 108   0.0157  -0.0225    4.926
 109   0.0199  -0.0248    4.408
 110   0.0245  -0.0269    3.960
 111   0.0296  -0.0287    3.534
 112   0.0351  -0.0304    3.165
 113   0.0411  -0.0318    2.851
 114   0.0476  -0.0331    2.551
 115   0.0545  -0.0340    2.284
 116   0.0618  -0.0348    2.046
 117   0.0696  -0.0353    1.830
 118   0.0778  -0.0356    1.627
 119   0.0865  -0.0356    1.447
 120   0.0955  -0.0354    1.281
 121   0.1049  -0.0350    1.131
 122   0.1147  -0.0344    0.980
 123   0.1249  -0.0336    0.863
 124   0.1355  -0.0326    0.726
 125   0.1464  -0.0314    0.635
 126   0.1577  -0.0301    0.514
 127   0.1693  -0.0286    0.435
 128   0.1813  -0.0270    0.337
 129   0.1935  -0.0252    0.264
 130   0.2061  -0.0234    0.190
 131   0.2190  -0.0215    0.121
 132   0.2321  -0.0195    0.063
 133   0.2455  -0.0174    0.006
 134   0.2591  -0.0154   -0.042
 135   0.2730  -0.0132   -0.083
 136   0.2871  -0.0111   -0.125
 137   0.3014  -0.0090   -0.163
 138   0.3159  -0.0069   -0.189
 139   0.3306  -0.0048   -0.215
 140   0.3455  -0.0027   -0.236
 141   0.3605  -0.0007   -0.259
 142   0.3757   0.0013   -0.269
 143   0.3909   0.0032   -0.284
 144   0.4063   0.0050   -0.296
 145   0.4218   0.0068   -0.294
 146   0.4373   0.0085   -0.312
 147   0.4529   0.0101   -0.307
 148   0.4686   0.0116   -0.308
 149   0.4843   0.0131   -0.316
 150   0.5000   0.0145   -0.312
 151   0.5157   0.0158   -0.311
 152   0.5314   0.0170   -0.312
 153   0.5471   0.0181   -0.309
 154   0.5627   0.0191   -0.311
 155   0.5782   0.0201   -0.315
 156   0.5937   0.0209   -0.308
 157   0.6091   0.0217   -0.313
 158   0.6243   0.0223   -0.316
 159   0.6395   0.0229   -0.323
 160   0.6545   0.0234   -0.320
 161   0.6694   0.0238   -0.329
 162   0.6841   0.0241   -0.340
 163   0.6986   0.0243   -0.340
 164   0.7129   0.0245   -0.353
 165   0.7270   0.0245   -0.360
 166   0.7409   0.0245   -0.372
 167   0.7545   0.0244   -0.378
 168   0.7679   0.0241   -0.394
 169   0.7810   0.0238   -0.407
 170   0.7939   0.0235   -0.409
 171   0.8065   0.0230   -0.431
 172   0.8187   0.0224   -0.436
 173   0.8307   0.0218   -0.443
 174   0.8423   0.0211   -0.452
 175   0.8536   0.0203   -0.468
 176   0.8645   0.0195   -0.465
 177   0.8751   0.0186   -0.470
 178   0.8853   0.0177   -0.481
 179   0.8951   0.0167   -0.472
 180   0.9045   0.0157   -0.479
 181   0.9135   0.0146   -0.465
 182   0.9222   0.0135   -0.471
 183   0.9304   0.0124   -0.456
 184   0.9382   0.0113   -0.447
 185   0.9455   0.0102   -0.438
 186   0.9524   0.0091   -0.414
 187   0.9589   0.0080   -0.398
 188   0.9649   0.0070   -0.384
 189   0.9704   0.0060   -0.354
 190   0.9755   0.0050   -0.340
 191   0.9801   0.0041   -0.296
 192   0.9843   0.0033   -0.282
 193   0.9880   0.0026   -0.249
 194   0.9911   0.0019   -0.220
 195   0.9938   0.0013   -0.148
 196   0.9961   0.0009   -0.182
 197   0.9978   0.0005   -0.089
 198   0.9990   0.0002   -0.061
 199   0.9998   0.0001   -0.131

 Maximum panel corner angle =  9.079   at  i,x,y  = 101   0.0002  -0.0031

 Enter corner angle criterion for refinement (deg):   4.540
 Enter type of spline parameter (1=uniform, 2=arclength):   1
 Enter refinement x limits:  -0.10000   1.10000
 Number of points added:           18
 Max thickness =     0.161696  at x =   0.158
 Max camber    =     0.070623  at x =   0.516

 Maximum panel corner angle =  5.085   at  i,x,y  = 103   0.0001  -0.0023

.GDES   c>  
 Buffer airfoil is not identical to current airfoil

 XFOIL   c>  
 Blunt trailing edge.  Gap =  0.00028

 Paneling parameters used...
   Number of panel nodes       160
   Panel bunching parameter    1.000
   TE/LE panel density ratio   0.150
   Refined-area/LE panel density ratio    0.200
   Top    side refined area x/c limits  1.000 1.000
   Bottom side refined area x/c limits  1.000 1.000

 XFOIL   c>  
Enter output filename   s>  
 XFOIL   c>  
.OPERi   c>   Current iteration limit:          20

Enter new iteration limit   i>  
Enter new iteration limit   i>  
Enter new iteration limit   i>  
.OPERi   c>  
 M  =    0.0000
 Re =  0.3000E+06

.OPERv   c>  
 Sonic Cp =   -420.65      Sonic Q/Qinf =    22.825


.OPERv   c>  
 Polar  1 newly created for accumulation
 Airfoil archived with polar: 000142                                          

Enter  polar save filename  OR  <return> for no file   s>  
 New polar save file available

Enter  polar dump filename  OR  <return> for no file   s>  
 Polar dump file will NOT be written

 Polar accumulation enabled

.OPERva   c>   Calculating unit vorticity distributions ...
 Calculating wake trajectory ...
 Calculating source influence matrix ...

 Solving BL system ...

 Initializing BL ...
    side            1  ...
 MRCHUE: Inverse mode at  43     Hk =   4.267
 MRCHUE: Inverse mode at  44     Hk =   5.113
 MRCHUE: Inverse mode at  45     Hk =   5.974
 MRCHUE: Inverse mode at  46     Hk =   6.862
 MRCHUE: Inverse mode at  47     Hk =   7.786
 MRCHUE: Inverse mode at  48     Hk =   8.752
 MRCHUE: Inverse mode at  49     Hk =   8.804
 MRCHUE: Inverse mode at  50     Hk =   4.085
 MRCHUE: Inverse mode at  51     Hk =   2.500
 MRCHUE: Inverse mode at  86     Hk =   2.500
 MRCHUE: Inverse mode at  87     Hk =   2.500
 MRCHUE: Inverse mode at  88     Hk =   2.500
 MRCHUE: Convergence failed at  89  side 1    Res =  0.6227E+02
    side            2  ...
 MRCHUE: Inverse mode at  35     Hk =   4.413
 MRCHUE: Inverse mode at  36     Hk =   5.307
 MRCHUE: Inverse mode at  37     Hk =   6.228
 MRCHUE: Inverse mode at  38     Hk =   7.168
 MRCHUE: Inverse mode at  39     Hk =   8.113
 MRCHUE: Inverse mode at  40     Hk =   9.046
 MRCHUE: Inverse mode at  41     Hk =   6.750
 MRCHUE: Inverse mode at  42     Hk =   3.778
 MRCHUE: Inverse mode at  43     Hk =   2.500
 MRCHUE: Convergence failed at  73  side 2    Res =  0.6388E+00

 MRCHDU: Convergence failed at  89  side 1    Res =  0.7818E+02
 Side 1  free  transition at x/c =  0.2169   49
 Side 2  free  transition at x/c =  0.3145   41

   1   rms: 0.5302E+00   max: 0.2567E+01   D at   75  2   RLX: 0.283
       a =  2.000      CL =  1.3174
      Cm = -0.2256     CD =  0.00800   =>   CDf =  0.01010    CDp = -0.00210

 Side 1  free  transition at x/c =  0.2234   50
 Side 2  free  transition at x/c =  0.3139   41

   2   rms: 0.3309E+00   max: 0.1495E+01   D at   76  2   RLX: 0.444
       a =  2.000      CL =  1.2249
      Cm = -0.2071     CD =  0.01067   =>   CDf =  0.00984    CDp =  0.00083

 Side 1  free  transition at x/c =  0.2296   50
 Side 2  free  transition at x/c =  0.3123   41

   3   rms: 0.1854E+00   max: 0.8095E+00   D at   79  2   RLX: 0.931
       a =  2.000      CL =  1.0880
      Cm = -0.1793     CD =  0.01714   =>   CDf =  0.00976    CDp =  0.00739

 Side 1  free  transition at x/c =  0.2406   50
 Side 2  free  transition at x/c =  0.3015   41

   4   rms: 0.6775E-01   max: 0.3470E+00   T at   41  2
       a =  2.000      CL =  1.0167
      Cm = -0.1651     CD =  0.01949   =>   CDf =  0.00949    CDp =  0.01000

 Side 1  free  transition at x/c =  0.2461   49
 Side 2  free  transition at x/c =  0.2804   42

   5   rms: 0.1625E-01   max: -.9355E-01   D at    2  2
       a =  2.000      CL =  1.0246
      Cm = -0.1668     CD =  0.01983   =>   CDf =  0.00923    CDp =  0.01060

 Side 1  free  transition at x/c =  0.2457   49
 Side 2  free  transition at x/c =  0.2835   42

   6   rms: 0.2225E-02   max: -.2060E-01   D at    4  2
       a =  2.000      CL =  1.0243
      Cm = -0.1668     CD =  0.01986   =>   CDf =  0.00920    CDp =  0.01067

 Side 1  free  transition at x/c =  0.2457   49
 Side 2  free  transition at x/c =  0.2829   42

   7   rms: 0.3488E-04   max: -.4153E-03   D at   43  2
       a =  2.000      CL =  1.0243
      Cm = -0.1668     CD =  0.01986   =>   CDf =  0.00920    CDp =  0.01066

 Point added to stored polar  1
 Point written to save file  000142M0.04.log                                 
 Dump file unspecified or not available
 Calculating wake trajectory ...
 Calculating source influence matrix ...

 Solving BL system ...

 Side 1  free  transition at x/c =  0.2457   49
 Side 2  free  transition at x/c =  0.2829   42

   1   rms: 0.1752E+00   max: -.1058E+01   T at   42  2   RLX: 0.473
       a =  3.000      CL =  1.0749
      Cm = -0.1663     CD =  0.02010   =>   CDf =  0.00907    CDp =  0.01103

 Side 1  free  transition at x/c =  0.2377   50
 Side 2  free  transition at x/c =  0.3081   42

   2   rms: 0.1283E+00   max: -.9148E+00   T at   42  2   RLX: 0.547
       a =  3.000      CL =  1.1069
      Cm = -0.1663     CD =  0.02086   =>   CDf =  0.00934    CDp =  0.01152

 Side 1  free  transition at x/c =  0.2335   49
 Side 2  free  transition at x/c =  0.3268   42

   3   rms: 0.4374E-01   max: -.3021E+00   T at   42  2
       a =  3.000      CL =  1.1246
      Cm = -0.1640     CD =  0.02113   =>   CDf =  0.00921    CDp =  0.01192

 Side 1  free  transition at x/c =  0.2302   50
 Side 2  free  transition at x/c =  0.3462   42

   4   rms: 0.1789E-01   max: -.2503E+00   D at   42  2
       a =  3.000      CL =  1.1273
      Cm = -0.1646     CD =  0.02105   =>   CDf =  0.00920    CDp =  0.01185

 Side 1  free  transition at x/c =  0.2299   50
 Side 2  free  transition at x/c =  0.3485   42

   5   rms: 0.2071E-02   max: 0.2875E-01   C at   42  2
       a =  3.000      CL =  1.1274
      Cm = -0.1647     CD =  0.02106   =>   CDf =  0.00914    CDp =  0.01192

 Side 1  free  transition at x/c =  0.2299   50
 Side 2  free  transition at x/c =  0.3473   42

   6   rms: 0.3250E-04   max: -.4110E-03   D at   42  2
       a =  3.000      CL =  1.1274
      Cm = -0.1647     CD =  0.02106   =>   CDf =  0.00915    CDp =  0.01191

 Point added to stored polar  1
 Point written to save file  000142M0.04.log                                 
 Dump file unspecified or not available
 Calculating wake trajectory ...
 Calculating source influence matrix ...

 Solving BL system ...

 Side 1  free  transition at x/c =  0.2299   50
 Side 2  free  transition at x/c =  0.3473   42

   1   rms: 0.1492E+00   max: -.9468E+00   T at   42  2   RLX: 0.528
       a =  4.000      CL =  1.1805
      Cm = -0.1633     CD =  0.02166   =>   CDf =  0.00916    CDp =  0.01251

 Side 1  free  transition at x/c =  0.2224   50
 Side 2  free  transition at x/c =  0.3980   44

   2   rms: 0.7530E-01   max: -.5601E+00   T at   44  2   RLX: 0.893
       a =  4.000      CL =  1.2224
      Cm = -0.1622     CD =  0.02248   =>   CDf =  0.00900    CDp =  0.01347

 Side 1  free  transition at x/c =  0.2180   50
 Side 2  free  transition at x/c =  0.4614   46

   3   rms: 0.4332E-01   max: -.8156E+00   C at   46  2   RLX: 0.613
       a =  4.000      CL =  1.2273
      Cm = -0.1625     CD =  0.02239   =>   CDf =  0.00899    CDp =  0.01340

 Side 1  free  transition at x/c =  0.2172   50
 Side 2  free  transition at x/c =  0.4684   46

   4   rms: 0.1656E-01   max: -.2626E+00   C at   46  2
       a =  4.000      CL =  1.2312
      Cm = -0.1630     CD =  0.02235   =>   CDf =  0.00899    CDp =  0.01336

 Side 1  free  transition at x/c =  0.2166   50
 Side 2  free  transition at x/c =  0.4918   47

   5   rms: 0.1410E-01   max: -.2705E+00   C at   47  2
       a =  4.000      CL =  1.2318
      Cm = -0.1631     CD =  0.02231   =>   CDf =  0.00890    CDp =  0.01341

 Side 1  free  transition at x/c =  0.2166   50
 Side 2  free  transition at x/c =  0.4922   47

   6   rms: 0.2197E-02   max: 0.4428E-01   C at   47  2
       a =  4.000      CL =  1.2317
      Cm = -0.1631     CD =  0.02231   =>   CDf =  0.00885    CDp =  0.01346

 Side 1  free  transition at x/c =  0.2166   50
 Side 2  free  transition at x/c =  0.4907   47

   7   rms: 0.9509E-05   max: -.1488E-03   D at   49  2
       a =  4.000      CL =  1.2317
      Cm = -0.1631     CD =  0.02231   =>   CDf =  0.00886    CDp =  0.01346

 Point added to stored polar  1
 Point written to save file  000142M0.04.log                                 
 Dump file unspecified or not available
 Calculating wake trajectory ...
 Calculating source influence matrix ...

 Solving BL system ...

 Side 1  free  transition at x/c =  0.2166   50
 Side 2  free  transition at x/c =  0.4906   47

   1   rms: 0.2770E+00   max: -.4838E+01   C at   47  2   RLX: 0.103
       a =  5.000      CL =  1.2419
      Cm = -0.1629     CD =  0.02240   =>   CDf =  0.00887    CDp =  0.01353

 Side 1  free  transition at x/c =  0.2154   50
 Side 2  free  transition at x/c =  0.5184   49

   2   rms: 0.3219E+00   max: -.5392E+01   C at   49  2   RLX: 0.093
       a =  5.000      CL =  1.2513
      Cm = -0.1630     CD =  0.02245   =>   CDf =  0.00880    CDp =  0.01365

 Side 1  free  transition at x/c =  0.2144   50
 Side 2  free  transition at x/c =  0.5422   50

   3   rms: 0.3596E+00   max: -.6553E+01   C at   50  2   RLX: 0.076
       a =  5.000      CL =  1.2584
      Cm = -0.1631     CD =  0.02250   =>   CDf =  0.00872    CDp =  0.01379

 Side 1  free  transition at x/c =  0.2136   50
 Side 2  free  transition at x/c =  0.5656   51

   4   rms: 0.4233E+00   max: -.8088E+01   C at   51  2   RLX: 0.062
       a =  5.000      CL =  1.2637
      Cm = -0.1632     CD =  0.02253   =>   CDf =  0.00864    CDp =  0.01389

 Side 1  free  transition at x/c =  0.2130   50
 Side 2  free  transition at x/c =  0.5895   52

   5   rms: 0.5260E+00   max: -.1024E+02   C at   52  2   RLX: 0.049
       a =  5.000      CL =  1.2677
      Cm = -0.1633     CD =  0.02254   =>   CDf =  0.00856    CDp =  0.01398

 Side 1  free  transition at x/c =  0.2125   50
 Side 2  free  transition at x/c =  0.6141   53

   6   rms: 0.6484E+00   max: -.1263E+02   C at   53  2   RLX: 0.040
       a =  5.000      CL =  1.2708
      Cm = -0.1633     CD =  0.02254   =>   CDf =  0.00849    CDp =  0.01405

 Side 1  free  transition at x/c =  0.2122   50
 Side 2  free  transition at x/c =  0.6390   54

   7   rms: 0.7680E+00   max: -.1482E+02   C at   54  2   RLX: 0.034
       a =  5.000      CL =  1.2733
      Cm = -0.1634     CD =  0.02253   =>   CDf =  0.00843    CDp =  0.01410

 Side 1  free  transition at x/c =  0.2119   50
 Side 2  free  transition at x/c =  0.6650   55

   8   rms: 0.9142E+00   max: -.1730E+02   C at   55  2   RLX: 0.029
       a =  5.000      CL =  1.2753
      Cm = -0.1634     CD =  0.02251   =>   CDf =  0.00836    CDp =  0.01415

 Side 1  free  transition at x/c =  0.2117   50
 Side 2  free  transition at x/c =  0.6925   56

   9   rms: 0.1084E+01   max: -.1993E+02   C at   56  2   RLX: 0.025
       a =  5.000      CL =  1.2768
      Cm = -0.1633     CD =  0.02248   =>   CDf =  0.00829    CDp =  0.01419

 Side 1  free  transition at x/c =  0.2115   50
 Side 2  free  transition at x/c =  0.7211   57

  10   rms: 0.1259E+01   max: -.2230E+02   C at   57  2   RLX: 0.022
       a =  5.000      CL =  1.2778
      Cm = -0.1632     CD =  0.02245   =>   CDf =  0.00823    CDp =  0.01422

 Side 1  free  transition at x/c =  0.2114   50
 Side 2  free  transition at x/c =  0.7523   59

  11   rms: 0.1397E+01   max: -.2516E+02   C at   59  2   RLX: 0.020
       a =  5.000      CL =  1.2782
      Cm = -0.1630     CD =  0.02239   =>   CDf =  0.00816    CDp =  0.01423

 Side 1  free  transition at x/c =  0.2113   50
 Side 2  free  transition at x/c =  0.8059   61

  12   rms: 0.2495E+01   max: -.4086E+02   C at   61  2   RLX: 0.012
       a =  5.000      CL =  1.2772
      Cm = -0.1625     CD =  0.02228   =>   CDf =  0.00806    CDp =  0.01422

 Side 1  free  transition at x/c =  0.2113   50
 Side 2  free  transition at x/c =  0.8309   62

  13   rms: 0.2792E+01   max: -.4342E+02   C at   62  2   RLX: 0.012
       a =  5.000      CL =  1.2761
      Cm = -0.1621     CD =  0.02223   =>   CDf =  0.00802    CDp =  0.01421

 Side 1  free  transition at x/c =  0.2113   50
 Side 2  free  transition at x/c =  0.8562   64

  14   rms: 0.2779E+01   max: -.4344E+02   C at   64  2   RLX: 0.012
       a =  5.000      CL =  1.2747
      Cm = -0.1617     CD =  0.02217   =>   CDf =  0.00798    CDp =  0.01419

 Side 1  free  transition at x/c =  0.2113   50
 Side 2  free  transition at x/c =  0.8793   65

  15   rms: 0.3456E+01   max: -.4997E+02   C at   65  2   RLX: 0.010
       a =  5.000      CL =  1.2733
      Cm = -0.1613     CD =  0.02212   =>   CDf =  0.00795    CDp =  0.01417

 Side 1  free  transition at x/c =  0.2113   50
 Side 2  free  transition at x/c =  0.8996   66

  16   rms: 0.4898E+01   max: -.6679E+02   C at   66  2   RLX: 0.007
       a =  5.000      CL =  1.2724
      Cm = -0.1610     CD =  0.02209   =>   CDf =  0.00794    CDp =  0.01416

 Side 1  free  transition at x/c =  0.2113   50
 Side 2  free  transition at x/c =  0.9176   67

  17   rms: 0.8810E+01   max: -.1167E+03   C at   67  2   RLX: 0.004
       a =  5.000      CL =  1.2720
      Cm = -0.1609     CD =  0.02209   =>   CDf =  0.00793    CDp =  0.01416

 Side 1  free  transition at x/c =  0.2113   50
 Side 2  free  transition at x/c =  0.9343   68

  18   rms: 0.9821E+01   max: -.1331E+03   C at   68  2   RLX: 0.004
       a =  5.000      CL =  1.2716
      Cm = -0.1608     CD =  0.02208   =>   CDf =  0.00793    CDp =  0.01415

 Side 1  free  transition at x/c =  0.2113   50
 Side 2  free  transition at x/c =  0.9496   69

  19   rms: 0.1141E+02   max: -.1647E+03   C at   69  2   RLX: 0.003
       a =  5.000      CL =  1.2713
      Cm = -0.1607     CD =  0.02207   =>   CDf =  0.00793    CDp =  0.01415

 Side 1  free  transition at x/c =  0.2113   50
 Side 2  free  transition at x/c =  0.9633   70

  20   rms: 0.1336E+02   max: -.2157E+03   C at   70  2   RLX: 0.002
       a =  5.000      CL =  1.2711
      Cm = -0.1606     CD =  0.02207   =>   CDf =  0.00792    CDp =  0.01415

 Side 1  free  transition at x/c =  0.2113   50
 Side 2  free  transition at x/c =  0.9754   71

  21   rms: 0.1546E+02   max: -.2996E+03   C at   71  2   RLX: 0.002
       a =  5.000      CL =  1.2710
      Cm = -0.1606     CD =  0.02207   =>   CDf =  0.00792    CDp =  0.01414

 Side 1  free  transition at x/c =  0.2113   50
 Side 2  free  transition at x/c =  0.9864   71

  22   rms: 0.1797E+02   max: -.3472E+03   C at   71  2   RLX: 0.001
       a =  5.000      CL =  1.2709
      Cm = -0.1605     CD =  0.02206   =>   CDf =  0.00792    CDp =  0.01414

 Side 1  free  transition at x/c =  0.2113   50
 Side 2  free  transition at x/c =  0.9960   72

  23   rms: 0.2509E+02   max: 0.6805E+03   C at   72  2   RLX: 0.002
       a =  5.000      CL =  1.2703
      Cm = -0.1604     CD =  0.02205   =>   CDf =  0.00792    CDp =  0.01413

 Side 1  free  transition at x/c =  0.2113   50
 Side 2  free  transition at x/c =  0.9894   72

  24   rms: 0.7713E+01   max: -.2092E+03   C at   72  2   RLX: 0.002
       a =  5.000      CL =  1.2699
      Cm = -0.1603     CD =  0.02205   =>   CDf =  0.00792    CDp =  0.01413

 Side 1  free  transition at x/c =  0.2113   50
 Side 2  free  transition at x/c =  0.9932   72

  25   rms: 0.4519E+02   max: -.1226E+04   C at   72  2   RLX: 0.000
       a =  5.000      CL =  1.2699
      Cm = -0.1603     CD =  0.02205   =>   CDf =  0.00792    CDp =  0.01413
 VISCAL:  Convergence failed
 Calculating wake trajectory ...
 Calculating source influence matrix ...

 Solving BL system ...

 Side 1  free  transition at x/c =  0.2113   50
 Side 2  free  transition at x/c =  0.9958   72

   1   rms: 0.7371E+02   max: 0.2000E+04   C at   72  2   RLX: 0.001
       a =  6.000      CL =  1.2688
      Cm = -0.1601     CD =  0.02205   =>   CDf =  0.00793    CDp =  0.01411

 Side 1  free  transition at x/c =  0.2113   50
 Side 2  free  transition at x/c =  0.9890   72

   2   rms: 0.1908E+02   max: -.5174E+03   C at   72  2   RLX: 0.001
       a =  6.000      CL =  1.2684
      Cm = -0.1600     CD =  0.02204   =>   CDf =  0.00793    CDp =  0.01411

 Side 1  free  transition at x/c =  0.2113   50
 Side 2  free  transition at x/c =  0.9929   72

   3   rms: 0.9706E+02   max: -.2633E+04   C at   72  2   RLX: 0.000
       a =  6.000      CL =  1.2684
      Cm = -0.1600     CD =  0.02204   =>   CDf =  0.00793    CDp =  0.01411

 Side 1  free  transition at x/c =  0.2113   50
 Side 2  free  transition at x/c =  0.9956   72

   4   rms: 0.8021E+02   max: 0.2176E+04   C at   72  2   RLX: 0.001
       a =  6.000      CL =  1.2679
      Cm = -0.1599     CD =  0.02204   =>   CDf =  0.00793    CDp =  0.01411

 Side 1  free  transition at x/c =  0.2113   50
 Side 2  free  transition at x/c =  0.9886   72

   5   rms: 0.1813E+02   max: -.4917E+03   C at   72  2   RLX: 0.001
       a =  6.000      CL =  1.2675
      Cm = -0.1598     CD =  0.02203   =>   CDf =  0.00793    CDp =  0.01410

 Side 1  free  transition at x/c =  0.2113   50
 Side 2  free  transition at x/c =  0.9927   72

   6   rms: 0.8644E+02   max: -.2345E+04   C at   72  2   RLX: 0.000
       a =  6.000      CL =  1.2674
      Cm = -0.1597     CD =  0.02203   =>   CDf =  0.00793    CDp =  0.01410

 Side 1  free  transition at x/c =  0.2113   50
 Side 2  free  transition at x/c =  0.9955   72

   7   rms: 0.8403E+02   max: 0.2280E+04   C at   72  2   RLX: 0.001
       a =  6.000      CL =  1.2669
      Cm = -0.1596     CD =  0.02203   =>   CDf =  0.00793    CDp =  0.01410

 Side 1  free  transition at x/c =  0.2113   50
 Side 2  free  transition at x/c =  0.9883   71

   8   rms: 0.3664E+00   max: -.3756E+01   n at   70  2   RLX: 0.133
       a =  6.000      CL =  1.2864
      Cm = -0.1589     CD =  0.02236   =>   CDf =  0.00778    CDp =  0.01458

 Side 1  free  transition at x/c =  0.2089   51
 Side 2 forced transition at x/c =  1.0001   71

   9   rms: 0.2111E+00   max: -.6140E+00   n at   67  2   RLX: 0.814
       a =  6.000      CL =  1.3886
      Cm = -0.1552     CD =  0.02420   =>   CDf =  0.00784    CDp =  0.01636

 MRCHDU: Convergence failed at  52  side 1    Res =  0.3189E+01
 MRCHDU: Convergence failed at  53  side 1    Res =  0.1917E+01
 MRCHDU: Convergence failed at  54  side 1    Res =  0.4450E+01
 MRCHDU: Convergence failed at  55  side 1    Res =  0.1496E+02
 MRCHDU: Convergence failed at  56  side 1    Res =  0.1805E+02
 MRCHDU: Convergence failed at  57  side 1    Res =  0.8317E+01
 MRCHDU: Convergence failed at  58  side 1    Res =  0.6507E+01
 MRCHDU: Convergence failed at  59  side 1    Res =  0.6060E+01
 MRCHDU: Convergence failed at  60  side 1    Res =  0.6142E+01
 MRCHDU: Convergence failed at  61  side 1    Res =  0.6569E+01
 MRCHDU: Convergence failed at  62  side 1    Res =  0.7309E+01
 MRCHDU: Convergence failed at  63  side 1    Res =  0.8417E+01
 MRCHDU: Convergence failed at  64  side 1    Res =  0.1002E+02
 MRCHDU: Convergence failed at  65  side 1    Res =  0.1297E+02
 MRCHDU: Convergence failed at  66  side 1    Res =  0.2239E+02
 MRCHDU: Convergence failed at  67  side 1    Res =  0.3639E+02
 MRCHDU: Convergence failed at  68  side 1    Res =  0.8961E+02
 MRCHDU: Convergence failed at  69  side 1    Res =  0.2405E+03
 MRCHDU: Convergence failed at  70  side 1    Res =  0.3765E+02
 MRCHDU: Convergence failed at  71  side 1    Res =  0.1682E+02
 MRCHDU: Convergence failed at  72  side 1    Res =  0.1402E+02
 MRCHDU: Convergence failed at  73  side 1    Res =  0.1265E+02
 MRCHDU: Convergence failed at  74  side 1    Res =  0.1427E+02
 MRCHDU: Convergence failed at  75  side 1    Res =  0.1852E+02
 MRCHDU: Convergence failed at  76  side 1    Res =  0.2005E+02
 MRCHDU: Convergence failed at  77  side 1    Res =  0.2268E+02
 MRCHDU: Convergence failed at  78  side 1    Res =  0.1345E+02
 MRCHDU: Convergence failed at  79  side 1    Res =  0.2399E+02
 MRCHDU: Convergence failed at  80  side 1    Res =  0.1636E+02
 MRCHDU: Convergence failed at  81  side 1    Res =  0.1818E+02
 MRCHDU: Convergence failed at  82  side 1    Res =  0.3442E+02
 MRCHDU: Convergence failed at  83  side 1    Res =  0.1468E+02
 MRCHDU: Convergence failed at  84  side 1    Res =  0.3511E+02
 MRCHDU: Convergence failed at  85  side 1    Res =  0.2483E+03
 MRCHDU: Convergence failed at  86  side 1    Res =  0.7058E+02
 MRCHDU: Convergence failed at  87  side 1    Res =  0.2102E+02
 MRCHDU: Convergence failed at  88  side 1    Res =  0.2853E+02
 MRCHDU: Convergence failed at  89  side 1    Res =  0.7033E+02
 MRCHDU: Convergence failed at  90  side 1    Res =  0.7001E+02
 MRCHDU: Convergence failed at  91  side 1    Res =  0.2594E+02
 MRCHDU: Convergence failed at  92  side 1    Res =  0.2402E+02
 MRCHDU: Convergence failed at  77  side 2    Res =  0.4022E+01
 MRCHDU: Convergence failed at  78  side 2    Res =  0.1917E+02
 Side 1  free  transition at x/c =  0.2001   51
 Side 2 forced transition at x/c =  1.0001   70

  10   rms: 0.1509E+01   max: 0.6868E+01   D at   74  2   RLX: 0.218
       a =  6.000      CL =  2.2298
      Cm = -0.5151     CD =  0.00769   =>   CDf =  0.00350    CDp =  0.00420

 MRCHDU: Convergence failed at  54  side 1    Res =  0.3892E-01
 MRCHDU: Convergence failed at  63  side 1    Res =  0.2199E+00
 MRCHDU: Convergence failed at  64  side 1    Res =  0.1610E+00
 MRCHDU: Convergence failed at  66  side 1    Res =  0.2827E+00
 MRCHDU: Convergence failed at  67  side 1    Res =  0.2603E+00
 MRCHDU: Convergence failed at  68  side 1    Res =  0.2267E+00
 MRCHDU: Convergence failed at  69  side 1    Res =  0.1337E+00
 MRCHDU: Convergence failed at  71  side 1    Res =  0.2646E+00
 MRCHDU: Convergence failed at  72  side 1    Res =  0.2392E+00
 MRCHDU: Convergence failed at  73  side 1    Res =  0.2018E+00
 MRCHDU: Convergence failed at  74  side 1    Res =  0.8705E-01
 MRCHDU: Convergence failed at  74  side 2    Res =  0.4296E+01
 MRCHDU: Convergence failed at  75  side 2    Res =  0.8249E+01
 MRCHDU: Convergence failed at  76  side 2    Res =  0.4819E+01
 Side 1  free  transition at x/c =  0.1896   51
 Side 2 forced transition at x/c =  1.0001   70

  11   rms: 0.3917E+00   max: 0.1078E+01   D at   77  2   RLX: 0.450
       a =  6.000      CL =  1.5518
      Cm = -0.2622     CD =  0.03702   =>   CDf =  0.00533    CDp =  0.03169

 Side 1  free  transition at x/c =  0.1946   51
 Side 2 forced transition at x/c =  1.0001   70

  12   rms: 0.5475E+00   max: -.3043E+01   D at   71  1   RLX: 0.164
       a =  6.000      CL =  1.4316
      Cm = -0.2307     CD =  0.04026   =>   CDf =  0.00529    CDp =  0.03496

 Side 1  free  transition at x/c =  0.2014   50
 Side 2 forced transition at x/c =  1.0001   71

  13   rms: 0.4973E+00   max: -.2098E+01   T at   61  1   RLX: 0.232
       a =  6.000      CL =  1.4407
      Cm = -0.2148     CD =  0.03981   =>   CDf =  0.00537    CDp =  0.03444

 Side 1  free  transition at x/c =  0.1932   51
 Side 2 forced transition at x/c =  1.0001   70

  14   rms: 0.3807E+00   max: -.2003E+01   D at   71  1   RLX: 0.250
       a =  6.000      CL =  1.3795
      Cm = -0.1888     CD =  0.04233   =>   CDf =  0.00458    CDp =  0.03775

 Side 1  free  transition at x/c =  0.1980   51
 Side 2 forced transition at x/c =  1.0001   70

  15   rms: 0.4895E+00   max: -.2810E+01   D at   61  1   RLX: 0.178
       a =  6.000      CL =  1.3285
      Cm = -0.1709     CD =  0.03963   =>   CDf =  0.00514    CDp =  0.03448

 Side 1  free  transition at x/c =  0.2025   50
 Side 2 forced transition at x/c =  1.0001   71

  16   rms: 0.4361E+00   max: -.2075E+01   T at   51  1   RLX: 0.241
       a =  6.000      CL =  1.3654
      Cm = -0.1660     CD =  0.03579   =>   CDf =  0.00536    CDp =  0.03044

 Side 1  free  transition at x/c =  0.1971   51
 Side 2 forced transition at x/c =  1.0001   70

  17   rms: 0.4758E+00   max: -.2304E+01   D at   65  1   RLX: 0.217
       a =  6.000      CL =  1.3727
      Cm = -0.1564     CD =  0.03591   =>   CDf =  0.00526    CDp =  0.03065

 Side 1  free  transition at x/c =  0.1990   51
 Side 2 forced transition at x/c =  1.0001   70

  18   rms: 0.4741E+00   max: -.2075E+01   D at   66  1   RLX: 0.241
       a =  6.000      CL =  1.4151
      Cm = -0.1546     CD =  0.03154   =>   CDf =  0.00605    CDp =  0.02549

 Side 1  free  transition at x/c =  0.1993   51
 Side 2 forced transition at x/c =  1.0001   70

  19   rms: 0.4832E+00   max: -.2357E+01   D at   57  1   RLX: 0.212
       a =  6.000      CL =  1.4361
      Cm = -0.1536     CD =  0.02946   =>   CDf =  0.00692    CDp =  0.02254

 MRCHDU: Convergence failed at  56  side 1    Res =  0.1786E+01
 Side 1  free  transition at x/c =  0.2010   51
 Side 2 forced transition at x/c =  1.0001   70

  20   rms: 0.2598E+00   max: -.1005E+01   D at   70  1   RLX: 0.497
       a =  6.000      CL =  1.4938
      Cm = -0.1592     CD =  0.02615   =>   CDf =  0.00800    CDp =  0.01815

 Side 1  free  transition at x/c =  0.1964   52
 Side 2 forced transition at x/c =  1.0001   69

  21   rms: 0.1275E+00   max: -.4289E+00   D at   85  1   RLX: 0.661
       a =  6.000      CL =  1.4483
      Cm = -0.1582     CD =  0.02532   =>   CDf =  0.00851    CDp =  0.01681

 Side 1  free  transition at x/c =  0.1972   51
 Side 2 forced transition at x/c =  1.0001   70

  22   rms: 0.5653E-01   max: -.5097E+00   D at   53  1   RLX: 0.981
       a =  6.000      CL =  1.4105
      Cm = -0.1542     CD =  0.02469   =>   CDf =  0.00827    CDp =  0.01641

 Side 1  free  transition at x/c =  0.1970   51
 Side 2 forced transition at x/c =  1.0001   70

  23   rms: 0.9485E-02   max: -.1510E+00   D at   53  1
       a =  6.000      CL =  1.4119
      Cm = -0.1545     CD =  0.02490   =>   CDf =  0.00822    CDp =  0.01667

 Side 1  free  transition at x/c =  0.1956   51
 Side 2 forced transition at x/c =  1.0001   70

  24   rms: 0.9880E-03   max: -.1393E-01   D at   53  1
       a =  6.000      CL =  1.4121
      Cm = -0.1545     CD =  0.02491   =>   CDf =  0.00825    CDp =  0.01666

 Side 1  free  transition at x/c =  0.1956   51
 Side 2 forced transition at x/c =  1.0001   70

  25   rms: 0.3081E-04   max: -.1539E-03   D at   88  1
       a =  6.000      CL =  1.4121
      Cm = -0.1545     CD =  0.02491   =>   CDf =  0.00826    CDp =  0.01666

 Point added to stored polar  1
 Point written to save file  000142M0.04.log                                 
 Dump file unspecified or not available
 Calculating wake trajectory ...
 Calculating source influence matrix ...

 Solving BL system ...

 Side 1  free  transition at x/c =  0.1956   51
 Side 2 forced transition at x/c =  1.0001   70

   1   rms: 0.1320E+00   max: -.1822E+00   n at   59  2   RLX: 0.988
       a =  7.000      CL =  1.5011
      Cm = -0.1509     CD =  0.02674   =>   CDf =  0.00808    CDp =  0.01866

 Side 1  free  transition at x/c =  0.1878   51
 Side 2 forced transition at x/c =  1.0001   69

   2   rms: 0.1757E-01   max: -.8846E-01   D at   53  1
       a =  7.000      CL =  1.5034
      Cm = -0.1511     CD =  0.02709   =>   CDf =  0.00847    CDp =  0.01861

 Side 1  free  transition at x/c =  0.1869   51
 Side 2 forced transition at x/c =  1.0001   69

   3   rms: 0.2366E-02   max: -.1152E-01   D at   89  1
       a =  7.000      CL =  1.5054
      Cm = -0.1514     CD =  0.02711   =>   CDf =  0.00843    CDp =  0.01867

 Side 1  free  transition at x/c =  0.1868   51
 Side 2 forced transition at x/c =  1.0001   69

   4   rms: 0.3090E-04   max: 0.4696E-03   D at   88  1
       a =  7.000      CL =  1.5054
      Cm = -0.1514     CD =  0.02711   =>   CDf =  0.00844    CDp =  0.01867

 Point added to stored polar  1
 Point written to save file  000142M0.04.log                                 
 Dump file unspecified or not available
 Calculating wake trajectory ...
 Calculating source influence matrix ...

 Solving BL system ...

 Side 1  free  transition at x/c =  0.1868   51
 Side 2 forced transition at x/c =  1.0001   69

   1   rms: 0.1257E+00   max: 0.1336E+00   D at   80  2   RLX: 0.927
       a =  8.000      CL =  1.5835
      Cm = -0.1473     CD =  0.02901   =>   CDf =  0.00824    CDp =  0.02078

 Side 1  free  transition at x/c =  0.1786   52
 Side 2 forced transition at x/c =  1.0001   68

   2   rms: 0.1841E-01   max: -.1786E+00   D at   52  1
       a =  8.000      CL =  1.5858
      Cm = -0.1466     CD =  0.02930   =>   CDf =  0.00821    CDp =  0.02109

 Side 1  free  transition at x/c =  0.1789   53
 Side 2 forced transition at x/c =  1.0001   67

   3   rms: 0.1754E-02   max: 0.1012E-01   D at    2  1
       a =  8.000      CL =  1.5875
      Cm = -0.1468     CD =  0.02928   =>   CDf =  0.00842    CDp =  0.02086

 Side 1  free  transition at x/c =  0.1789   53
 Side 2 forced transition at x/c =  1.0001   67

   4   rms: 0.3689E-03   max: -.4517E-02   D at    4  1
       a =  8.000      CL =  1.5875
      Cm = -0.1468     CD =  0.02929   =>   CDf =  0.00843    CDp =  0.02086

 Side 1  free  transition at x/c =  0.1789   53
 Side 2 forced transition at x/c =  1.0001   67

   5   rms: 0.2553E-05   max: 0.3491E-04   D at    2  1
       a =  8.000      CL =  1.5875
      Cm = -0.1468     CD =  0.02929   =>   CDf =  0.00843    CDp =  0.02086

 Point added to stored polar  1
 Point written to save file  000142M0.04.log                                 
 Dump file unspecified or not available
 Calculating wake trajectory ...
 Calculating source influence matrix ...

 Solving BL system ...

 Side 1  free  transition at x/c =  0.1789   53
 Side 2 forced transition at x/c =  1.0001   67

   1   rms: 0.1261E+00   max: 0.1394E+00   D at   79  2   RLX: 0.865
       a =  9.000      CL =  1.6599
      Cm = -0.1434     CD =  0.03136   =>   CDf =  0.00820    CDp =  0.02316

 Side 1  free  transition at x/c =  0.1743   53
 Side 2 forced transition at x/c =  1.0001   66

   2   rms: 0.1996E-01   max: -.1380E+00   C at   53  1
       a =  9.000      CL =  1.6686
      Cm = -0.1425     CD =  0.03201   =>   CDf =  0.00848    CDp =  0.02353

 Side 1  free  transition at x/c =  0.1721   53
 Side 2 forced transition at x/c =  1.0001   66

   3   rms: 0.3819E-02   max: -.2040E-01   D at   90  1
       a =  9.000      CL =  1.6715
      Cm = -0.1429     CD =  0.03199   =>   CDf =  0.00839    CDp =  0.02360

 Side 1  free  transition at x/c =  0.1720   53
 Side 2 forced transition at x/c =  1.0001   66

   4   rms: 0.5242E-04   max: -.4086E-03   D at   75  2
       a =  9.000      CL =  1.6716
      Cm = -0.1429     CD =  0.03200   =>   CDf =  0.00840    CDp =  0.02359

 Point added to stored polar  1
 Point written to save file  000142M0.04.log                                 
 Dump file unspecified or not available
 Calculating wake trajectory ...
 Calculating source influence matrix ...

 Solving BL system ...

 Side 1  free  transition at x/c =  0.1720   53
 Side 2 forced transition at x/c =  1.0001   66

   1   rms: 0.1205E+00   max: 0.1515E+00   D at   78  2   RLX: 0.802
       a = 10.000      CL =  1.7307
      Cm = -0.1387     CD =  0.03422   =>   CDf =  0.00816    CDp =  0.02606

 Side 1  free  transition at x/c =  0.1660   54
 Side 2 forced transition at x/c =  1.0001   65

   2   rms: 0.2526E-01   max: -.1666E+00   D at   54  1
       a = 10.000      CL =  1.7427
      Cm = -0.1375     CD =  0.03477   =>   CDf =  0.00837    CDp =  0.02640

 Side 1  free  transition at x/c =  0.1655   54
 Side 2 forced transition at x/c =  1.0001   65

   3   rms: 0.1253E-02   max: 0.5488E-02   T at   54  1
       a = 10.000      CL =  1.7439
      Cm = -0.1377     CD =  0.03476   =>   CDf =  0.00837    CDp =  0.02639

 Side 1  free  transition at x/c =  0.1654   54
 Side 2 forced transition at x/c =  1.0001   65

   4   rms: 0.2379E-04   max: 0.1594E-03   D at   90  1
       a = 10.000      CL =  1.7439
      Cm = -0.1377     CD =  0.03476   =>   CDf =  0.00837    CDp =  0.02639

 Point added to stored polar  1
 Point written to save file  000142M0.04.log                                 
 Dump file unspecified or not available
 Calculating wake trajectory ...
 Calculating source influence matrix ...

 Solving BL system ...

 Side 1  free  transition at x/c =  0.1654   54
 Side 2 forced transition at x/c =  1.0001   65

   1   rms: 0.1232E+00   max: 0.1463E+00   D at   79  2   RLX: 0.754
       a = 11.000      CL =  1.8041
      Cm = -0.1349     CD =  0.03703   =>   CDf =  0.00810    CDp =  0.02893

 Side 1  free  transition at x/c =  0.1621   54
 Side 2 forced transition at x/c =  1.0001   64

   2   rms: 0.2615E-01   max: 0.1571E+00   T at   54  1
       a = 11.000      CL =  1.8120
      Cm = -0.1324     CD =  0.03833   =>   CDf =  0.00835    CDp =  0.02998

 Side 1  free  transition at x/c =  0.1599   54
 Side 2 forced transition at x/c =  1.0001   64

   3   rms: 0.1919E-02   max: -.9949E-02   D at   92  1
       a = 11.000      CL =  1.8134
      Cm = -0.1326     CD =  0.03831   =>   CDf =  0.00819    CDp =  0.03013

 Side 1  free  transition at x/c =  0.1598   54
 Side 2 forced transition at x/c =  1.0001   64

   4   rms: 0.3909E-04   max: -.2914E-03   D at   75  2
       a = 11.000      CL =  1.8134
      Cm = -0.1326     CD =  0.03832   =>   CDf =  0.00819    CDp =  0.03013

 Point added to stored polar  1
 Point written to save file  000142M0.04.log                                 
 Dump file unspecified or not available
 Calculating wake trajectory ...
 Calculating source influence matrix ...

 Solving BL system ...

 Side 1  free  transition at x/c =  0.1598   54
 Side 2 forced transition at x/c =  1.0001   64

   1   rms: 0.1123E+00   max: 0.1740E+00   D at   77  2   RLX: 0.681
       a = 12.000      CL =  1.8523
      Cm = -0.1283     CD =  0.04094   =>   CDf =  0.00790    CDp =  0.03304

 Side 1  free  transition at x/c =  0.1556   55
 Side 2 forced transition at x/c =  1.0001   63

   2   rms: 0.3395E-01   max: 0.5795E-01   D at   75  2
       a = 12.000      CL =  1.8685
      Cm = -0.1263     CD =  0.04210   =>   CDf =  0.00806    CDp =  0.03404

 Side 1  free  transition at x/c =  0.1544   55
 Side 2 forced transition at x/c =  1.0001   63

   3   rms: 0.2445E-02   max: -.1168E-01   D at   91  1
       a = 12.000      CL =  1.8700
      Cm = -0.1265     CD =  0.04201   =>   CDf =  0.00804    CDp =  0.03397

 Side 1  free  transition at x/c =  0.1544   55
 Side 2 forced transition at x/c =  1.0001   63

   4   rms: 0.1628E-03   max: -.7121E-03   D at   74  2
       a = 12.000      CL =  1.8701
      Cm = -0.1265     CD =  0.04201   =>   CDf =  0.00804    CDp =  0.03397

 Side 1  free  transition at x/c =  0.1544   55
 Side 2 forced transition at x/c =  1.0001   63

   5   rms: 0.3286E-05   max: -.2057E-04   D at   75  2
       a = 12.000      CL =  1.8701
      Cm = -0.1265     CD =  0.04201   =>   CDf =  0.00804    CDp =  0.03397

 Point added to stored polar  1
 Point written to save file  000142M0.04.log                                 
 Dump file unspecified or not available
 Calculating wake trajectory ...
 Calculating source influence matrix ...

 Solving BL system ...

 Side 1  free  transition at x/c =  0.1544   55
 Side 2 forced transition at x/c =  1.0001   63

   1   rms: 0.1143E+00   max: 0.1553E+00   D at   78  2   RLX: 0.634
       a = 13.000      CL =  1.9105
      Cm = -0.1234     CD =  0.04437   =>   CDf =  0.00772    CDp =  0.03665

 Side 1  free  transition at x/c =  0.1518   56
 Side 2 forced transition at x/c =  1.0001   62

   2   rms: 0.7994E-01   max: 0.3098E+00   T at   56  1
       a = 13.000      CL =  1.9775
      Cm = -0.1269     CD =  0.04606   =>   CDf =  0.00770    CDp =  0.03836

 Side 1  free  transition at x/c =  0.1485   56
 Side 2 forced transition at x/c =  1.0001   61

   3   rms: 0.5481E-01   max: -.2620E+00   D at   56  1
       a = 13.000      CL =  1.9263
      Cm = -0.1209     CD =  0.04672   =>   CDf =  0.00825    CDp =  0.03847

 Side 1  free  transition at x/c =  0.1497   55
 Side 2 forced transition at x/c =  1.0001   62

   4   rms: 0.6063E-02   max: 0.7791E-01   D at   92  1
       a = 13.000      CL =  1.9238
      Cm = -0.1208     CD =  0.04677   =>   CDf =  0.00784    CDp =  0.03893

 Side 1  free  transition at x/c =  0.1498   55
 Side 2 forced transition at x/c =  1.0001   62

   5   rms: 0.3377E-03   max: 0.3903E-02   D at    4  2
       a = 13.000      CL =  1.9239
      Cm = -0.1208     CD =  0.04673   =>   CDf =  0.00783    CDp =  0.03891

 Side 1  free  transition at x/c =  0.1498   55
 Side 2 forced transition at x/c =  1.0001   62

   6   rms: 0.1981E-05   max: -.1307E-04   D at    2  2
       a = 13.000      CL =  1.9239
      Cm = -0.1208     CD =  0.04673   =>   CDf =  0.00783    CDp =  0.03891

 Point added to stored polar  1
 Point written to save file  000142M0.04.log                                 
 Dump file unspecified or not available
 Calculating wake trajectory ...
 Calculating source influence matrix ...

 Solving BL system ...

 Side 1  free  transition at x/c =  0.1498   55
 Side 2 forced transition at x/c =  1.0001   62

   1   rms: 0.1058E+00   max: 0.3013E+00   T at   55  1   RLX: 0.565
       a = 14.000      CL =  1.9408
      Cm = -0.1165     CD =  0.05016   =>   CDf =  0.00749    CDp =  0.04267

 Side 1  free  transition at x/c =  0.1470   56
 Side 2 forced transition at x/c =  1.0001   61

   2   rms: 0.4291E-01   max: 0.1159E+00   D at   74  2
       a = 14.000      CL =  1.9513
      Cm = -0.1134     CD =  0.05282   =>   CDf =  0.00756    CDp =  0.04526

 Side 1  free  transition at x/c =  0.1451   56
 Side 2 forced transition at x/c =  1.0001   61

   3   rms: 0.3874E-02   max: -.2398E-01   D at   56  1
       a = 14.000      CL =  1.9517
      Cm = -0.1135     CD =  0.05262   =>   CDf =  0.00743    CDp =  0.04520

 Side 1  free  transition at x/c =  0.1452   56
 Side 2 forced transition at x/c =  1.0001   61

   4   rms: 0.5409E-03   max: -.2206E-02   D at   90  1
       a = 14.000      CL =  1.9522
      Cm = -0.1135     CD =  0.05261   =>   CDf =  0.00743    CDp =  0.04518

 Side 1  free  transition at x/c =  0.1452   56
 Side 2 forced transition at x/c =  1.0001   61

   5   rms: 0.1055E-04   max: -.1001E-03   D at   75  2
       a = 14.000      CL =  1.9522
      Cm = -0.1135     CD =  0.05261   =>   CDf =  0.00743    CDp =  0.04518

 Point added to stored polar  1
 Point written to save file  000142M0.04.log                                 
 Dump file unspecified or not available
 Calculating wake trajectory ...
 Calculating source influence matrix ...

 Solving BL system ...

 Side 1  free  transition at x/c =  0.1452   56
 Side 2 forced transition at x/c =  1.0001   61

   1   rms: 0.1036E+00   max: 0.1895E+00   D at   77  2   RLX: 0.518
       a = 15.000      CL =  1.9710
      Cm = -0.1106     CD =  0.05567   =>   CDf =  0.00708    CDp =  0.04859

 Side 1  free  transition at x/c =  0.1431   57
 Side 2 forced transition at x/c =  1.0001   60

   2   rms: 0.5150E-01   max: 0.1539E+00   T at   57  1
       a = 15.000      CL =  1.9970
      Cm = -0.1086     CD =  0.05792   =>   CDf =  0.00697    CDp =  0.05095

 Side 1  free  transition at x/c =  0.1414   58
 Side 2 forced transition at x/c =  1.0001   59

   3   rms: 0.8143E-02   max: 0.4520E-01   D at    2  1
       a = 15.000      CL =  2.0023
      Cm = -0.1090     CD =  0.05776   =>   CDf =  0.00735    CDp =  0.05042

 Side 1  free  transition at x/c =  0.1410   58
 Side 2 forced transition at x/c =  1.0001   59

   4   rms: 0.2030E-02   max: 0.1049E-01   T at   58  1
       a = 15.000      CL =  2.0037
      Cm = -0.1092     CD =  0.05786   =>   CDf =  0.00740    CDp =  0.05046

 Side 1  free  transition at x/c =  0.1409   57
 Side 2 forced transition at x/c =  1.0001   59

   5   rms: 0.8302E-03   max: 0.4247E-02   D at   91  1
       a = 15.000      CL =  2.0030
      Cm = -0.1091     CD =  0.05790   =>   CDf =  0.00741    CDp =  0.05050

 Side 1  free  transition at x/c =  0.1409   57
 Side 2 forced transition at x/c =  1.0001   59

   6   rms: 0.1252E-04   max: 0.1746E-03   D at   73  2
       a = 15.000      CL =  2.0030
      Cm = -0.1091     CD =  0.05790   =>   CDf =  0.00741    CDp =  0.05049

 Point added to stored polar  1
 Point written to save file  000142M0.04.log                                 
 Dump file unspecified or not available

.OPERva   c>  
 XFOIL   c>  
0.1
resp: 
 ===================================================
  XFOIL Version 6.97
  Copyright (C) 2000   Mark Drela, Harold Youngren

  This software comes with ABSOLUTELY NO WARRANTY,
    subject to the GNU General Public License.

  Caveat computor
 ===================================================

 File  xfoil.def  not found

   QUIT    Exit program

  .OPER    Direct operating point(s)
  .MDES    Complex mapping design routine
  .QDES    Surface speed design routine
  .GDES    Geometry design routine

   SAVE f  Write airfoil to labeled coordinate file
   PSAV f  Write airfoil to plain coordinate file
   ISAV f  Write airfoil to ISES coordinate file
   MSAV f  Write airfoil to MSES coordinate file
   REVE    Reverse written-airfoil node ordering
   DELI i  Change written-airfoil file delimiters

   LOAD f  Read buffer airfoil from coordinate file
   NACA i  Set NACA 4,5-digit airfoil and buffer airfoil
   INTE    Set buffer airfoil by interpolating two airfoils
   NORM    Buffer airfoil normalization toggle
   HALF    Halve the number of points in buffer airfoil
   XYCM rr Change CM reference location, currently  0.25000 0.00000

   BEND    Display structural properties of current airfoil

   PCOP    Set current-airfoil panel nodes directly from buffer airfoil points
   PANE    Set current-airfoil panel nodes ( 160 ) based on curvature
  .PPAR    Show/change paneling

  .PLOP    Plotting options

   WDEF f  Write  current-settings file
   RDEF f  Reread current-settings file
   NAME s  Specify new airfoil name
   NINC    Increment name version number

   Z       Zoom    | (available in all menus)
   U       Unzoom  | 

 XFOIL   c>   ...............................................

  G raphics-enable flag:        T
  S ize of plot object          10.00"
  A spect ratio of plot object   0.5500
  P age dimensions              11.00 x  8.50"
  M argins from page edges       0.00",  0.00"
  F ont size (relative)          0.0150
  W indow/screen size fraction   0.8000
  B lowup input method:        Cursor    
  O rientation of plot:        Landscape 
  C olor PostScript output?     F

      Option, Value   (or <Return>)    c>   ...............................................

  G raphics-enable flag:        F
  S ize of plot object          10.00"
  A spect ratio of plot object   0.5500
  P age dimensions              11.00 x  8.50"
  M argins from page edges       0.00",  0.00"
  F ont size (relative)          0.0150
  W indow/screen size fraction   0.8000
  B lowup input method:        Cursor    
  O rientation of plot:        Landscape 
  C olor PostScript output?     F

      Option, Value   (or <Return>)    c>  
 XFOIL   c>  
 Labeled airfoil file.  Name:  000142                                          

 Number of input coordinate points: 200
 Clockwise ordering
 Max thickness =     0.161729  at x =   0.157
 Max camber    =     0.069813  at x =   0.531

  LE  x,y  =  -0.00002   0.00156  |   Chord =   0.99990
  TE  x,y  =   0.99988   0.00006  |

 Current airfoil nodes set from buffer airfoil nodes ( 200 )

 XFOIL   c>  
 You are working with the buffer airfoil

.GDES   c>  
  i       x        y      angle
   2   0.9990   0.0005    0.075
   3   0.9978   0.0011    0.085
   4   0.9961   0.0020    0.058
   5   0.9938   0.0031    0.139
   6   0.9911   0.0044    0.134
   7   0.9880   0.0059    0.150
   8   0.9843   0.0077    0.199
   9   0.9801   0.0097    0.216
  10   0.9755   0.0119    0.228
  11   0.9704   0.0143    0.272
  12   0.9649   0.0169    0.283
  13   0.9589   0.0197    0.317
  14   0.9524   0.0226    0.340
  15   0.9455   0.0257    0.372
  16   0.9382   0.0289    0.394
  17   0.9304   0.0323    0.425
  18   0.9222   0.0358    0.447
  19   0.9135   0.0393    0.475
  20   0.9045   0.0430    0.495
  21   0.8951   0.0467    0.536
  22   0.8853   0.0504    0.547
  23   0.8751   0.0542    0.582
  24   0.8645   0.0580    0.592
  25   0.8536   0.0618    0.615
  26   0.8423   0.0656    0.645
  27   0.8307   0.0694    0.652
  28   0.8187   0.0731    0.670
  29   0.8065   0.0767    0.687
  30   0.7939   0.0803    0.690
  31   0.7810   0.0838    0.700
  32   0.7679   0.0872    0.701
  33   0.7545   0.0905    0.707
  34   0.7409   0.0937    0.705
  35   0.7270   0.0968    0.696
  36   0.7129   0.0997    0.688
  37   0.6986   0.1025    0.676
  38   0.6841   0.1052    0.662
  39   0.6694   0.1077    0.641
  40   0.6545   0.1101    0.619
  41   0.6395   0.1123    0.599
  42   0.6243   0.1144    0.567
  43   0.6091   0.1163    0.539
  44   0.5937   0.1181    0.515
  45   0.5782   0.1198    0.475
  46   0.5627   0.1214    0.445
  47   0.5471   0.1229    0.415
  48   0.5314   0.1242    0.380
  49   0.5157   0.1254    0.345
  50   0.5000   0.1266    0.312
  51   0.4843   0.1276    0.287
  52   0.4686   0.1286    0.259
  53   0.4529   0.1295    0.232
  54   0.4373   0.1304    0.212
  55   0.4218   0.1311    0.196
  56   0.4063   0.1319    0.181
  57   0.3909   0.1325    0.173
  58   0.3757   0.1331    0.174
  59   0.3605   0.1337    0.178
  60   0.3455   0.1342    0.192
  61   0.3306   0.1347    0.206
  62   0.3159   0.1351    0.241
  63   0.3014   0.1354    0.270
  64   0.2871   0.1357    0.313
  65   0.2730   0.1359    0.376
  66   0.2591   0.1360    0.434
  67   0.2455   0.1359    0.506
  68   0.2321   0.1358    0.600
  69   0.2190   0.1355    0.694
  70   0.2061   0.1351    0.799
  71   0.1935   0.1345    0.923
  72   0.1813   0.1338    1.053
  73   0.1693   0.1328    1.205
  74   0.1577   0.1316    1.357
  75   0.1464   0.1302    1.527
  76   0.1355   0.1285    1.713
  77   0.1249   0.1266    1.907
  78   0.1147   0.1243    2.099
  79   0.1049   0.1218    2.320
  80   0.0955   0.1190    2.523
  81   0.0865   0.1158    2.744
  82   0.0778   0.1123    2.945
  83   0.0696   0.1085    3.150
  84   0.0618   0.1043    3.338
  85   0.0545   0.0998    3.500
  86   0.0476   0.0950    3.659
  87   0.0411   0.0898    3.755
  88   0.0351   0.0843    3.856
  89   0.0296   0.0785    3.899
  90   0.0245   0.0724    3.938
  91   0.0199   0.0661    3.931
  92   0.0157   0.0594    3.925
  93   0.0120   0.0525    3.867
  94   0.0089   0.0455    3.846
  95   0.0062   0.0382    3.784
  96   0.0039   0.0307    3.737
  97   0.0022   0.0232    3.702
  98   0.0010   0.0155    3.662
  99   0.0002   0.0078    3.644
 100   0.0000   0.0000    6.436
 101   0.0002  -0.0031    9.079
 102   0.0010  -0.0061    8.706
 103   0.0022  -0.0091    8.175
 104   0.0039  -0.0120    7.489
 105   0.0062  -0.0148    6.809
 106   0.0089  -0.0175    6.148
 107   0.0120  -0.0201    5.505
 108   0.0157  -0.0225    4.926
 109   0.0199  -0.0248    4.408
 110   0.0245  -0.0269    3.960
 111   0.0296  -0.0287    3.534
 112   0.0351  -0.0304    3.165
 113   0.0411  -0.0318    2.851
 114   0.0476  -0.0331    2.551
 115   0.0545  -0.0340    2.284
 116   0.0618  -0.0348    2.046
 117   0.0696  -0.0353    1.830
 118   0.0778  -0.0356    1.627
 119   0.0865  -0.0356    1.447
 120   0.0955  -0.0354    1.281
 121   0.1049  -0.0350    1.131
 122   0.1147  -0.0344    0.980
 123   0.1249  -0.0336    0.863
 124   0.1355  -0.0326    0.726
 125   0.1464  -0.0314    0.635
 126   0.1577  -0.0301    0.514
 127   0.1693  -0.0286    0.435
 128   0.1813  -0.0270    0.337
 129   0.1935  -0.0252    0.264
 130   0.2061  -0.0234    0.190
 131   0.2190  -0.0215    0.121
 132   0.2321  -0.0195    0.063
 133   0.2455  -0.0174    0.006
 134   0.2591  -0.0154   -0.042
 135   0.2730  -0.0132   -0.083
 136   0.2871  -0.0111   -0.125
 137   0.3014  -0.0090   -0.163
 138   0.3159  -0.0069   -0.189
 139   0.3306  -0.0048   -0.215
 140   0.3455  -0.0027   -0.236
 141   0.3605  -0.0007   -0.259
 142   0.3757   0.0013   -0.269
 143   0.3909   0.0032   -0.284
 144   0.4063   0.0050   -0.296
 145   0.4218   0.0068   -0.294
 146   0.4373   0.0085   -0.312
 147   0.4529   0.0101   -0.307
 148   0.4686   0.0116   -0.308
 149   0.4843   0.0131   -0.316
 150   0.5000   0.0145   -0.312
 151   0.5157   0.0158   -0.311
 152   0.5314   0.0170   -0.312
 153   0.5471   0.0181   -0.309
 154   0.5627   0.0191   -0.311
 155   0.5782   0.0201   -0.315
 156   0.5937   0.0209   -0.308
 157   0.6091   0.0217   -0.313
 158   0.6243   0.0223   -0.316
 159   0.6395   0.0229   -0.323
 160   0.6545   0.0234   -0.320
 161   0.6694   0.0238   -0.329
 162   0.6841   0.0241   -0.340
 163   0.6986   0.0243   -0.340
 164   0.7129   0.0245   -0.353
 165   0.7270   0.0245   -0.360
 166   0.7409   0.0245   -0.372
 167   0.7545   0.0244   -0.378
 168   0.7679   0.0241   -0.394
 169   0.7810   0.0238   -0.407
 170   0.7939   0.0235   -0.409
 171   0.8065   0.0230   -0.431
 172   0.8187   0.0224   -0.436
 173   0.8307   0.0218   -0.443
 174   0.8423   0.0211   -0.452
 175   0.8536   0.0203   -0.468
 176   0.8645   0.0195   -0.465
 177   0.8751   0.0186   -0.470
 178   0.8853   0.0177   -0.481
 179   0.8951   0.0167   -0.472
 180   0.9045   0.0157   -0.479
 181   0.9135   0.0146   -0.465
 182   0.9222   0.0135   -0.471
 183   0.9304   0.0124   -0.456
 184   0.9382   0.0113   -0.447
 185   0.9455   0.0102   -0.438
 186   0.9524   0.0091   -0.414
 187   0.9589   0.0080   -0.398
 188   0.9649   0.0070   -0.384
 189   0.9704   0.0060   -0.354
 190   0.9755   0.0050   -0.340
 191   0.9801   0.0041   -0.296
 192   0.9843   0.0033   -0.282
 193   0.9880   0.0026   -0.249
 194   0.9911   0.0019   -0.220
 195   0.9938   0.0013   -0.148
 196   0.9961   0.0009   -0.182
 197   0.9978   0.0005   -0.089
 198   0.9990   0.0002   -0.061
 199   0.9998   0.0001   -0.131

 Maximum panel corner angle =  9.079   at  i,x,y  = 101   0.0002  -0.0031

 Enter corner angle criterion for refinement (deg):   4.540
 Enter type of spline parameter (1=uniform, 2=arclength):   1
 Enter refinement x limits:  -0.10000   1.10000
 Number of points added:           18
 Max thickness =     0.161696  at x =   0.158
 Max camber    =     0.070623  at x =   0.516

 Maximum panel corner angle =  5.085   at  i,x,y  = 103   0.0001  -0.0023

.GDES   c>  
 Buffer airfoil is not identical to current airfoil

 XFOIL   c>  
 Blunt trailing edge.  Gap =  0.00028

 Paneling parameters used...
   Number of panel nodes       160
   Panel bunching parameter    1.000
   TE/LE panel density ratio   0.150
   Refined-area/LE panel density ratio    0.200
   Top    side refined area x/c limits  1.000 1.000
   Bottom side refined area x/c limits  1.000 1.000

 XFOIL   c>  
.OPERi   c>   Current iteration limit:          20

Enter new iteration limit   i>  
Enter new iteration limit   i>  
Enter new iteration limit   i>  
.OPERi   c>  
 M  =    0.0000
 Re =  0.3000E+06

.OPERv   c>  
 Sonic Cp =    -66.86      Sonic Q/Qinf =     9.138


.OPERv   c>  
 Polar  1 newly created for accumulation
 Airfoil archived with polar: 000142                                          

Enter  polar save filename  OR  <return> for no file   s>  
 New polar save file available

Enter  polar dump filename  OR  <return> for no file   s>  
 Polar dump file will NOT be written

 Polar accumulation enabled

.OPERva   c>   Calculating unit vorticity distributions ...
 Calculating wake trajectory ...
 Calculating source influence matrix ...

 Solving BL system ...

 Initializing BL ...
    side            1  ...
 MRCHUE: Inverse mode at  43     Hk =   4.325
 MRCHUE: Inverse mode at  44     Hk =   5.171
 MRCHUE: Inverse mode at  45     Hk =   6.032
 MRCHUE: Inverse mode at  46     Hk =   6.921
 MRCHUE: Inverse mode at  47     Hk =   7.845
 MRCHUE: Inverse mode at  48     Hk =   8.813
 MRCHUE: Inverse mode at  49     Hk =   8.486
 MRCHUE: Inverse mode at  50     Hk =   3.976
 MRCHUE: Inverse mode at  51     Hk =   2.500
 MRCHUE: Inverse mode at  86     Hk =   2.500
 MRCHUE: Inverse mode at  87     Hk =   2.500
 MRCHUE: Inverse mode at  88     Hk =   2.500
 MRCHUE: Convergence failed at  89  side 1    Res =  0.7419E+02
    side            2  ...
 MRCHUE: Inverse mode at  35     Hk =   4.439
 MRCHUE: Inverse mode at  36     Hk =   5.333
 MRCHUE: Inverse mode at  37     Hk =   6.254
 MRCHUE: Inverse mode at  38     Hk =   7.196
 MRCHUE: Inverse mode at  39     Hk =   8.141
 MRCHUE: Inverse mode at  40     Hk =   9.076
 MRCHUE: Inverse mode at  41     Hk =   6.596
 MRCHUE: Inverse mode at  42     Hk =   3.694
 MRCHUE: Inverse mode at  43     Hk =   2.500
 MRCHUE: Convergence failed at  73  side 2    Res =  0.6126E+00

 MRCHDU: Convergence failed at  89  side 1    Res =  0.9770E+02
 Side 1  free  transition at x/c =  0.2161   49
 Side 2  free  transition at x/c =  0.3136   41

   1   rms: 0.5317E+00   max: 0.2575E+01   D at   75  2   RLX: 0.281
       a =  2.000      CL =  1.3261
      Cm = -0.2267     CD =  0.00791   =>   CDf =  0.01006    CDp = -0.00216

 Side 1  free  transition at x/c =  0.2221   50
 Side 2  free  transition at x/c =  0.3128   41

   2   rms: 0.3308E+00   max: 0.1485E+01   D at   76  2   RLX: 0.439
       a =  2.000      CL =  1.2313
      Cm = -0.2077     CD =  0.01072   =>   CDf =  0.00986    CDp =  0.00086

 Side 1  free  transition at x/c =  0.2285   50
 Side 2  free  transition at x/c =  0.3111   41

   3   rms: 0.1876E+00   max: 0.8129E+00   D at   79  2   RLX: 0.871
       a =  2.000      CL =  1.1002
      Cm = -0.1812     CD =  0.01692   =>   CDf =  0.00975    CDp =  0.00717

 Side 1  free  transition at x/c =  0.2381   50
 Side 2  free  transition at x/c =  0.3009   41

   4   rms: 0.7688E-01   max: 0.3729E+00   T at   41  2
       a =  2.000      CL =  1.0174
      Cm = -0.1648     CD =  0.01942   =>   CDf =  0.00954    CDp =  0.00987

 Side 1  free  transition at x/c =  0.2458   49
 Side 2  free  transition at x/c =  0.2789   41

   5   rms: 0.1698E-01   max: -.8386E-01   D at   82  2
       a =  2.000      CL =  1.0264
      Cm = -0.1667     CD =  0.02002   =>   CDf =  0.00921    CDp =  0.01081

 Side 1  free  transition at x/c =  0.2445   49
 Side 2  free  transition at x/c =  0.2801   42

   6   rms: 0.5498E-02   max: -.6428E-01   D at   41  2
       a =  2.000      CL =  1.0261
      Cm = -0.1667     CD =  0.02004   =>   CDf =  0.00923    CDp =  0.01081

 Side 1  free  transition at x/c =  0.2445   49
 Side 2  free  transition at x/c =  0.2807   42

   7   rms: 0.2965E-03   max: 0.2290E-02   T at   42  2
       a =  2.000      CL =  1.0261
      Cm = -0.1667     CD =  0.02004   =>   CDf =  0.00921    CDp =  0.01083

 Side 1  free  transition at x/c =  0.2445   49
 Side 2  free  transition at x/c =  0.2806   42

   8   rms: 0.3744E-05   max: -.2502E-04   D at   43  2
       a =  2.000      CL =  1.0261
      Cm = -0.1667     CD =  0.02004   =>   CDf =  0.00921    CDp =  0.01083

 Point added to stored polar  1
 Point written to save file  000142M0.1.log                                  
 Dump file unspecified or not available
 Calculating wake trajectory ...
 Calculating source influence matrix ...

 Solving BL system ...

 Side 1  free  transition at x/c =  0.2445   49
 Side 2  free  transition at x/c =  0.2806   42

   1   rms: 0.1943E+00   max: -.1091E+01   T at   42  2   RLX: 0.458
       a =  3.000      CL =  1.0773
      Cm = -0.1666     CD =  0.02012   =>   CDf =  0.00908    CDp =  0.01104

 Side 1  free  transition at x/c =  0.2369   50
 Side 2  free  transition at x/c =  0.3199   42

   2   rms: 0.8505E-01   max: 0.3935E+00   D at   42  2
       a =  3.000      CL =  1.1341
      Cm = -0.1654     CD =  0.02183   =>   CDf =  0.00904    CDp =  0.01279

 Side 1  free  transition at x/c =  0.2282   50
 Side 2  free  transition at x/c =  0.3416   42

   3   rms: 0.3381E-01   max: -.3086E+00   D at   50  1
       a =  3.000      CL =  1.1243
      Cm = -0.1636     CD =  0.02125   =>   CDf =  0.00920    CDp =  0.01206

 Side 1  free  transition at x/c =  0.2295   50
 Side 2  free  transition at x/c =  0.3429   42

   4   rms: 0.6745E-02   max: -.3364E-01   D at   86  1
       a =  3.000      CL =  1.1304
      Cm = -0.1646     CD =  0.02123   =>   CDf =  0.00911    CDp =  0.01212

 Side 1  free  transition at x/c =  0.2288   50
 Side 2  free  transition at x/c =  0.3444   42

   5   rms: 0.1653E-03   max: 0.2027E-02   D at   85  1
       a =  3.000      CL =  1.1302
      Cm = -0.1646     CD =  0.02123   =>   CDf =  0.00913    CDp =  0.01211

 Side 1  free  transition at x/c =  0.2289   50
 Side 2  free  transition at x/c =  0.3444   42

   6   rms: 0.3362E-05   max: -.1428E-04   T at   42  2
       a =  3.000      CL =  1.1302
      Cm = -0.1646     CD =  0.02123   =>   CDf =  0.00913    CDp =  0.01211

 Point added to stored polar  1
 Point written to save file  000142M0.1.log                                  
 Dump file unspecified or not available
 Calculating wake trajectory ...
 Calculating source influence matrix ...

 Solving BL system ...

 Side 1  free  transition at x/c =  0.2289   50
 Side 2  free  transition at x/c =  0.3444   42

   1   rms: 0.1517E+00   max: -.9447E+00   T at   42  2   RLX: 0.529
       a =  4.000      CL =  1.1840
      Cm = -0.1633     CD =  0.02184   =>   CDf =  0.00914    CDp =  0.01270

 MRCHDU: Convergence failed at  44  side 2    Res =  0.3295E+01
 MRCHDU: Convergence failed at  45  side 2    Res =  0.1719E+01
 MRCHDU: Convergence failed at  46  side 2    Res =  0.6671E+01
 MRCHDU: Convergence failed at  47  side 2    Res =  0.1005E+03
 MRCHDU: Convergence failed at  48  side 2    Res =  0.2972E+02
 MRCHDU: Convergence failed at  49  side 2    Res =  0.3196E+02
 MRCHDU: Convergence failed at  50  side 2    Res =  0.1790E+03
 MRCHDU: Convergence failed at  51  side 2    Res =  0.3287E+02
 MRCHDU: Convergence failed at  52  side 2    Res =  0.1436E+02
 MRCHDU: Convergence failed at  53  side 2    Res =  0.9191E+01
 MRCHDU: Convergence failed at  54  side 2    Res =  0.6881E+01
 MRCHDU: Convergence failed at  55  side 2    Res =  0.5124E+01
 MRCHDU: Convergence failed at  56  side 2    Res =  0.4448E+01
 MRCHDU: Convergence failed at  57  side 2    Res =  0.3958E+01
 MRCHDU: Convergence failed at  58  side 2    Res =  0.3602E+01
 MRCHDU: Convergence failed at  59  side 2    Res =  0.3317E+01
 MRCHDU: Convergence failed at  60  side 2    Res =  0.3084E+01
 MRCHDU: Convergence failed at  61  side 2    Res =  0.2877E+01
 MRCHDU: Convergence failed at  62  side 2    Res =  0.2737E+01
 MRCHDU: Convergence failed at  63  side 2    Res =  0.2542E+01
 MRCHDU: Convergence failed at  64  side 2    Res =  0.2358E+01
 MRCHDU: Convergence failed at  65  side 2    Res =  0.2145E+01
 MRCHDU: Convergence failed at  66  side 2    Res =  0.1922E+01
 MRCHDU: Convergence failed at  67  side 2    Res =  0.1678E+01
 MRCHDU: Convergence failed at  68  side 2    Res =  0.1396E+01
 Side 1  free  transition at x/c =  0.2214   50
 Side 2  free  transition at x/c =  0.3901   44

   2   rms: 0.2754E+00   max: -.1362E+01   D at   50  2   RLX: 0.367
       a =  4.000      CL =  1.1901
      Cm = -0.1547     CD =  0.02151   =>   CDf =  0.00719    CDp =  0.01431

 Side 1  free  transition at x/c =  0.2187   51
 Side 2  free  transition at x/c =  0.4369   45

   3   rms: 0.6220E-01   max: -.5513E+00   C at   45  2   RLX: 0.907
       a =  4.000      CL =  1.2426
      Cm = -0.1644     CD =  0.02306   =>   CDf =  0.00922    CDp =  0.01383

 Side 1  free  transition at x/c =  0.2144   50
 Side 2  free  transition at x/c =  0.4773   47

   4   rms: 0.2624E-01   max: -.2297E+00   D at   50  1
       a =  4.000      CL =  1.2321
      Cm = -0.1625     CD =  0.02255   =>   CDf =  0.00897    CDp =  0.01358

 Side 1  free  transition at x/c =  0.2159   50
 Side 2  free  transition at x/c =  0.4813   47

   5   rms: 0.3526E-02   max: 0.3820E-01   C at   47  2
       a =  4.000      CL =  1.2349
      Cm = -0.1630     CD =  0.02252   =>   CDf =  0.00884    CDp =  0.01368

 Side 1  free  transition at x/c =  0.2157   50
 Side 2  free  transition at x/c =  0.4804   47

   6   rms: 0.1024E-03   max: 0.1892E-02   C at   47  2
       a =  4.000      CL =  1.2349
      Cm = -0.1630     CD =  0.02252   =>   CDf =  0.00885    CDp =  0.01368

 Side 1  free  transition at x/c =  0.2157   50
 Side 2  free  transition at x/c =  0.4803   47

   7   rms: 0.6162E-06   max: 0.3967E-05   C at   47  2
       a =  4.000      CL =  1.2349
      Cm = -0.1630     CD =  0.02252   =>   CDf =  0.00885    CDp =  0.01368

 Point added to stored polar  1
 Point written to save file  000142M0.1.log                                  
 Dump file unspecified or not available
 Calculating wake trajectory ...
 Calculating source influence matrix ...

 Solving BL system ...

 Side 1  free  transition at x/c =  0.2157   50
 Side 2  free  transition at x/c =  0.4803   47

   1   rms: 0.2982E+00   max: -.5146E+01   C at   47  2   RLX: 0.097
       a =  5.000      CL =  1.2448
      Cm = -0.1628     CD =  0.02260   =>   CDf =  0.00886    CDp =  0.01374

 Side 1  free  transition at x/c =  0.2145   50
 Side 2  free  transition at x/c =  0.5037   48

   2   rms: 0.3044E+00   max: -.5444E+01   C at   48  2   RLX: 0.092
       a =  5.000      CL =  1.2540
      Cm = -0.1628     CD =  0.02269   =>   CDf =  0.00879    CDp =  0.01389

 Side 1  free  transition at x/c =  0.2134   50
 Side 2  free  transition at x/c =  0.5231   49

   3   rms: 0.3103E+00   max: -.5517E+01   C at   49  2   RLX: 0.091
       a =  5.000      CL =  1.2625
      Cm = -0.1629     CD =  0.02277   =>   CDf =  0.00875    CDp =  0.01401

 Side 1  free  transition at x/c =  0.2125   50
 Side 2  free  transition at x/c =  0.5398   50

   4   rms: 0.2732E+00   max: -.4288E+01   C at   50  2   RLX: 0.117
       a =  5.000      CL =  1.2724
      Cm = -0.1631     CD =  0.02286   =>   CDf =  0.00874    CDp =  0.01412

 Side 1  free  transition at x/c =  0.2114   50
 Side 2  free  transition at x/c =  0.5635   51

   5   rms: 0.2709E+00   max: -.4442E+01   C at   51  2   RLX: 0.113
       a =  5.000      CL =  1.2808
      Cm = -0.1632     CD =  0.02295   =>   CDf =  0.00869    CDp =  0.01426

 Side 1  free  transition at x/c =  0.2104   50
 Side 2  free  transition at x/c =  0.5869   52

   6   rms: 0.2826E+00   max: -.4892E+01   C at   52  2   RLX: 0.102
       a =  5.000      CL =  1.2878
      Cm = -0.1634     CD =  0.02302   =>   CDf =  0.00863    CDp =  0.01439

 Side 1  free  transition at x/c =  0.2097   50
 Side 2  free  transition at x/c =  0.6103   53

   7   rms: 0.3274E+00   max: -.5986E+01   C at   53  2   RLX: 0.084
       a =  5.000      CL =  1.2930
      Cm = -0.1635     CD =  0.02306   =>   CDf =  0.00837    CDp =  0.01469

 Side 1  free  transition at x/c =  0.2092   51
 Side 2  free  transition at x/c =  0.6330   52

   8   rms: 0.3365E+00   max: -.6557E+01   C at   52  2   RLX: 0.076
       a =  5.000      CL =  1.2971
      Cm = -0.1636     CD =  0.02311   =>   CDf =  0.00848    CDp =  0.01463

 Side 1  free  transition at x/c =  0.2088   51
 Side 2  free  transition at x/c =  0.6546   53

   9   rms: 0.5111E+00   max: -.9831E+01   C at   53  2   RLX: 0.051
       a =  5.000      CL =  1.3000
      Cm = -0.1638     CD =  0.02310   =>   CDf =  0.00841    CDp =  0.01468

 Side 1  free  transition at x/c =  0.2085   51
 Side 2  free  transition at x/c =  0.6662   54

  10   rms: 0.7300E+00   max: -.1407E+02   C at   54  2   RLX: 0.036
       a =  5.000      CL =  1.3018
      Cm = -0.1639     CD =  0.02310   =>   CDf =  0.00839    CDp =  0.01471

 Side 1  free  transition at x/c =  0.2084   51
 Side 2  free  transition at x/c =  0.6777   54

  11   rms: 0.1186E+01   max: -.2060E+02   C at   54  2   RLX: 0.024
       a =  5.000      CL =  1.3027
      Cm = -0.1638     CD =  0.02307   =>   CDf =  0.00831    CDp =  0.01476

 Side 1  free  transition at x/c =  0.2083   51
 Side 2  free  transition at x/c =  0.6807   55

  12   rms: 0.5798E+00   max: -.1122E+02   C at   55  2   RLX: 0.045
       a =  5.000      CL =  1.3052
      Cm = -0.1641     CD =  0.02312   =>   CDf =  0.00837    CDp =  0.01475

 Side 1  free  transition at x/c =  0.2081   51
 Side 2  free  transition at x/c =  0.7014   55

  13   rms: 0.1575E+01   max: -.2613E+02   C at   55  2   RLX: 0.019
       a =  5.000      CL =  1.3055
      Cm = -0.1639     CD =  0.02306   =>   CDf =  0.00824    CDp =  0.01481

 Side 1  free  transition at x/c =  0.2080   51
 Side 2  free  transition at x/c =  0.7156   56

  14   rms: 0.1711E+01   max: -.2966E+02   C at   56  2   RLX: 0.017
       a =  5.000      CL =  1.3062
      Cm = -0.1640     CD =  0.02304   =>   CDf =  0.00822    CDp =  0.01482

 Side 1  free  transition at x/c =  0.2080   51
 Side 2  free  transition at x/c =  0.7432   57

  15   rms: 0.3113E+01   max: -.4995E+02   C at   57  2   RLX: 0.010
       a =  5.000      CL =  1.3058
      Cm = -0.1639     CD =  0.02298   =>   CDf =  0.00815    CDp =  0.01483

 Side 1  free  transition at x/c =  0.2079   51
 Side 2  free  transition at x/c =  0.7661   58

  16   rms: 0.3282E+01   max: -.5194E+02   C at   58  2   RLX: 0.010
       a =  5.000      CL =  1.3052
      Cm = -0.1636     CD =  0.02294   =>   CDf =  0.00812    CDp =  0.01483

 Side 1  free  transition at x/c =  0.2079   51
 Side 2  free  transition at x/c =  0.7971   60

  17   rms: 0.3103E+01   max: -.5086E+02   C at   60  2   RLX: 0.010
       a =  5.000      CL =  1.3041
      Cm = -0.1633     CD =  0.02288   =>   CDf =  0.00807    CDp =  0.01481

 Side 1  free  transition at x/c =  0.2080   51
 Side 2  free  transition at x/c =  0.8295   61

  18   rms: 0.3699E+01   max: -.5582E+02   C at   61  2   RLX: 0.009
       a =  5.000      CL =  1.3026
      Cm = -0.1629     CD =  0.02281   =>   CDf =  0.00802    CDp =  0.01479

 Side 1  free  transition at x/c =  0.2080   51
 Side 2  free  transition at x/c =  0.8568   63

  19   rms: 0.3459E+01   max: -.5275E+02   C at   63  2   RLX: 0.009
       a =  5.000      CL =  1.3009
      Cm = -0.1624     CD =  0.02274   =>   CDf =  0.00798    CDp =  0.01476

 Side 1  free  transition at x/c =  0.2080   51
 Side 2  free  transition at x/c =  0.8813   64

  20   rms: 0.4330E+01   max: -.6126E+02   C at   64  2   RLX: 0.008
       a =  5.000      CL =  1.2993
      Cm = -0.1620     CD =  0.02269   =>   CDf =  0.00796    CDp =  0.01474

 Side 1  free  transition at x/c =  0.2081   51
 Side 2  free  transition at x/c =  0.9021   65

  21   rms: 0.6774E+01   max: -.9004E+02   C at   65  2   RLX: 0.006
       a =  5.000      CL =  1.2983
      Cm = -0.1618     CD =  0.02267   =>   CDf =  0.00794    CDp =  0.01472

 Side 1  free  transition at x/c =  0.2081   51
 Side 2  free  transition at x/c =  0.9205   66

  22   rms: 0.1062E+02   max: -.1389E+03   C at   66  2   RLX: 0.004
       a =  5.000      CL =  1.2978
      Cm = -0.1616     CD =  0.02266   =>   CDf =  0.00794    CDp =  0.01472

 Side 1  free  transition at x/c =  0.2081   51
 Side 2  free  transition at x/c =  0.9374   67

  23   rms: 0.1193E+02   max: -.1603E+03   C at   67  2   RLX: 0.003
       a =  5.000      CL =  1.2974
      Cm = -0.1615     CD =  0.02265   =>   CDf =  0.00794    CDp =  0.01471

 Side 1  free  transition at x/c =  0.2081   51
 Side 2  free  transition at x/c =  0.9528   68

  24   rms: 0.1396E+02   max: -.2005E+03   C at   68  2   RLX: 0.002
       a =  5.000      CL =  1.2970
      Cm = -0.1615     CD =  0.02264   =>   CDf =  0.00793    CDp =  0.01471

 Side 1  free  transition at x/c =  0.2081   51
 Side 2  free  transition at x/c =  0.9664   69

  25   rms: 0.1637E+02   max: -.2636E+03   C at   69  2   RLX: 0.002
       a =  5.000      CL =  1.2968
      Cm = -0.1614     CD =  0.02264   =>   CDf =  0.00793    CDp =  0.01471
 VISCAL:  Convergence failed
 Calculating wake trajectory ...
 Calculating source influence matrix ...

 Solving BL system ...

 Side 1  free  transition at x/c =  0.2081   51
 Side 2  free  transition at x/c =  0.9778   70

   1   rms: 0.4551E+02   max: -.8811E+03   C at   70  2   RLX: 0.001
       a =  6.000      CL =  1.2962
      Cm = -0.1614     CD =  0.02264   =>   CDf =  0.00795    CDp =  0.01469

 Side 1  free  transition at x/c =  0.2081   51
 Side 2  free  transition at x/c =  0.9886   71

   2   rms: 0.1714E+02   max: -.4646E+03   C at   71  2   RLX: 0.001
       a =  6.000      CL =  1.2956
      Cm = -0.1612     CD =  0.02263   =>   CDf =  0.00794    CDp =  0.01468

 Side 1  free  transition at x/c =  0.2081   51
 Side 2  free  transition at x/c =  0.9926   71

   3   rms: 0.6645E+02   max: -.1803E+04   C at   71  2   RLX: 0.000
       a =  6.000      CL =  1.2955
      Cm = -0.1612     CD =  0.02262   =>   CDf =  0.00794    CDp =  0.01468

 Side 1  free  transition at x/c =  0.2081   51
 Side 2  free  transition at x/c =  0.9951   71

   4   rms: 0.1487E+03   max: 0.4035E+04   C at   71  2   RLX: 0.000
       a =  6.000      CL =  1.2952
      Cm = -0.1611     CD =  0.02262   =>   CDf =  0.00794    CDp =  0.01468

 Side 1  free  transition at x/c =  0.2081   51
 Side 2  free  transition at x/c =  0.9883   71

   5   rms: 0.1669E+02   max: -.4525E+03   C at   71  2   RLX: 0.001
       a =  6.000      CL =  1.2946
      Cm = -0.1609     CD =  0.02262   =>   CDf =  0.00794    CDp =  0.01467

 Side 1  free  transition at x/c =  0.2082   51
 Side 2  free  transition at x/c =  0.9925   71

   6   rms: 0.6613E+02   max: -.1794E+04   C at   71  2   RLX: 0.000
       a =  6.000      CL =  1.2945
      Cm = -0.1609     CD =  0.02261   =>   CDf =  0.00794    CDp =  0.01467

 Side 1  free  transition at x/c =  0.2082   51
[...]
       a =  9.000      CL =  1.5794
      Cm = -0.1566     CD =  0.06845   =>   CDf =  0.00444    CDp =  0.06401

 Side 1  free  transition at x/c =  0.1569   51
 Side 2 forced transition at x/c =  1.0001   67

   7   rms: 0.1331E+01   max: -.5456E+01   D at   72  1   RLX: 0.092
       a =  9.000      CL =  1.6992
      Cm = -0.1652     CD =  0.06488   =>   CDf =  0.00439    CDp =  0.06050

 Side 1  free  transition at x/c =  0.1593   51
 Side 2 forced transition at x/c =  1.0001   67

   8   rms: 0.1253E+01   max: -.3506E+01   D at   79  1   RLX: 0.115
       a =  9.000      CL =  1.8186
      Cm = -0.1698     CD =  0.05520   =>   CDf =  0.00464    CDp =  0.05056

 Side 1  free  transition at x/c =  0.1625   52
 Side 2 forced transition at x/c =  1.0001   66

   9   rms: 0.4415E+00   max: 0.7962E+00   D at   74  2   RLX: 0.369
       a =  9.000      CL =  1.6526
      Cm = -0.1541     CD =  0.06487   =>   CDf =  0.00569    CDp =  0.05919

 Side 1  free  transition at x/c =  0.1547   51
 Side 2 forced transition at x/c =  1.0001   67

  10   rms: 0.4067E+00   max: -.1496E+01   D at   72  1   RLX: 0.334
       a =  9.000      CL =  1.7178
      Cm = -0.1594     CD =  0.05886   =>   CDf =  0.00427    CDp =  0.05458

 Side 1  free  transition at x/c =  0.1577   52
 Side 2 forced transition at x/c =  1.0001   66

  11   rms: 0.5084E+00   max: -.1635E+01   D at   79  1   RLX: 0.306
       a =  9.000      CL =  1.8161
      Cm = -0.1639     CD =  0.05083   =>   CDf =  0.00516    CDp =  0.04567

 Side 1  free  transition at x/c =  0.1605   52
 Side 2 forced transition at x/c =  1.0001   66

  12   rms: 0.4436E+00   max: -.1545E+01   D at   59  1   RLX: 0.324
       a =  9.000      CL =  1.8690
      Cm = -0.1699     CD =  0.04292   =>   CDf =  0.00592    CDp =  0.03700

 Side 1  free  transition at x/c =  0.1682   54
 Side 2 forced transition at x/c =  1.0001   65

  13   rms: 0.2171E+00   max: -.1081E+01   D at   59  1   RLX: 0.463
       a =  9.000      CL =  1.8376
      Cm = -0.1658     CD =  0.03298   =>   CDf =  0.00756    CDp =  0.02542

 Side 1  free  transition at x/c =  0.1719   54
 Side 2 forced transition at x/c =  1.0001   65

  14   rms: 0.1448E+00   max: -.7672E+00   D at   57  1   RLX: 0.652
       a =  9.000      CL =  1.7692
      Cm = -0.1557     CD =  0.03051   =>   CDf =  0.00840    CDp =  0.02211

 Side 1  free  transition at x/c =  0.1728   53
 Side 2 forced transition at x/c =  1.0001   66

  15   rms: 0.9073E-01   max: -.3279E+00   D at   56  1
       a =  9.000      CL =  1.6732
      Cm = -0.1414     CD =  0.03197   =>   CDf =  0.00839    CDp =  0.02358

 Side 1  free  transition at x/c =  0.1715   53
 Side 2 forced transition at x/c =  1.0001   66

  16   rms: 0.9647E-02   max: 0.1046E+00   D at   75  2
       a =  9.000      CL =  1.6760
      Cm = -0.1421     CD =  0.03254   =>   CDf =  0.00834    CDp =  0.02420

 Side 1  free  transition at x/c =  0.1711   53
 Side 2 forced transition at x/c =  1.0001   66

  17   rms: 0.2809E-03   max: 0.3992E-02   D at   90  1
       a =  9.000      CL =  1.6760
      Cm = -0.1422     CD =  0.03252   =>   CDf =  0.00833    CDp =  0.02419

 Side 1  free  transition at x/c =  0.1711   53
 Side 2 forced transition at x/c =  1.0001   66

  18   rms: 0.4213E-05   max: -.1672E-04   D at   85  1
       a =  9.000      CL =  1.6760
      Cm = -0.1422     CD =  0.03252   =>   CDf =  0.00833    CDp =  0.02419

 Point added to stored polar  1
 Point written to save file  000142M0.1.log                                  
 Dump file unspecified or not available
 Calculating wake trajectory ...
 Calculating source influence matrix ...

 Solving BL system ...

 Side 1  free  transition at x/c =  0.1711   53
 Side 2 forced transition at x/c =  1.0001   66

   1   rms: 0.1206E+00   max: 0.1527E+00   D at   78  2   RLX: 0.783
       a = 10.000      CL =  1.7340
      Cm = -0.1380     CD =  0.03476   =>   CDf =  0.00809    CDp =  0.02667

 Side 1  free  transition at x/c =  0.1653   54
 Side 2 forced transition at x/c =  1.0001   65

   2   rms: 0.2880E-01   max: -.1853E+00   D at   54  1
       a = 10.000      CL =  1.7488
      Cm = -0.1369     CD =  0.03537   =>   CDf =  0.00834    CDp =  0.02703

 Side 1  free  transition at x/c =  0.1647   54
 Side 2 forced transition at x/c =  1.0001   65

   3   rms: 0.1969E-02   max: 0.1342E-01   D at   54  1
       a = 10.000      CL =  1.7503
      Cm = -0.1371     CD =  0.03539   =>   CDf =  0.00834    CDp =  0.02704

 Side 1  free  transition at x/c =  0.1646   54
 Side 2 forced transition at x/c =  1.0001   65

   4   rms: 0.8174E-04   max: 0.4173E-03   D at   90  1
       a = 10.000      CL =  1.7502
      Cm = -0.1371     CD =  0.03539   =>   CDf =  0.00836    CDp =  0.02704

 Point added to stored polar  1
 Point written to save file  000142M0.1.log                                  
 Dump file unspecified or not available
 Calculating wake trajectory ...
 Calculating source influence matrix ...

 Solving BL system ...

 Side 1  free  transition at x/c =  0.1646   54
 Side 2 forced transition at x/c =  1.0001   65

   1   rms: 0.1315E+00   max: 0.1488E+00   D at   81  2   RLX: 0.751
       a = 11.000      CL =  1.8202
      Cm = -0.1355     CD =  0.03782   =>   CDf =  0.00808    CDp =  0.02974

 MRCHDU: Convergence failed at  55  side 1    Res =  0.3219E+01
 MRCHDU: Convergence failed at  56  side 1    Res =  0.3813E+01
 MRCHDU: Convergence failed at  57  side 1    Res =  0.6315E+01
 MRCHDU: Convergence failed at  58  side 1    Res =  0.1870E+02
 MRCHDU: Convergence failed at  59  side 1    Res =  0.7102E+01
 MRCHDU: Convergence failed at  60  side 1    Res =  0.5654E+01
 MRCHDU: Convergence failed at  61  side 1    Res =  0.5498E+01
 MRCHDU: Convergence failed at  62  side 1    Res =  0.5807E+01
 MRCHDU: Convergence failed at  63  side 1    Res =  0.6401E+01
 MRCHDU: Convergence failed at  64  side 1    Res =  0.6916E+01
 MRCHDU: Convergence failed at  65  side 1    Res =  0.5693E+02
 MRCHDU: Convergence failed at  66  side 1    Res =  0.2665E+02
 MRCHDU: Convergence failed at  67  side 1    Res =  0.2380E+02
 MRCHDU: Convergence failed at  68  side 1    Res =  0.2347E+02
 MRCHDU: Convergence failed at  69  side 1    Res =  0.2391E+02
 MRCHDU: Convergence failed at  70  side 1    Res =  0.2395E+02
 MRCHDU: Convergence failed at  71  side 1    Res =  0.2439E+02
 MRCHDU: Convergence failed at  72  side 1    Res =  0.2360E+02
 MRCHDU: Convergence failed at  73  side 1    Res =  0.2252E+02
 MRCHDU: Convergence failed at  74  side 1    Res =  0.2111E+02
 MRCHDU: Convergence failed at  75  side 1    Res =  0.2920E+02
 MRCHDU: Convergence failed at  76  side 1    Res =  0.2681E+02
 MRCHDU: Convergence failed at  77  side 1    Res =  0.3766E+02
 MRCHDU: Convergence failed at  78  side 1    Res =  0.2764E+03
 MRCHDU: Convergence failed at  79  side 1    Res =  0.9583E+02
 MRCHDU: Convergence failed at  80  side 1    Res =  0.5598E+02
 MRCHDU: Convergence failed at  81  side 1    Res =  0.1039E+03
 MRCHDU: Convergence failed at  82  side 1    Res =  0.7923E+02
 MRCHDU: Convergence failed at  83  side 1    Res =  0.3171E+03
 MRCHDU: Convergence failed at  84  side 1    Res =  0.9845E+02
 MRCHDU: Convergence failed at  85  side 1    Res =  0.3550E+02
 MRCHDU: Convergence failed at  86  side 1    Res =  0.3199E+02
 MRCHDU: Convergence failed at  87  side 1    Res =  0.2637E+03
 MRCHDU: Convergence failed at  88  side 1    Res =  0.6675E+03
 MRCHDU: Convergence failed at  89  side 1    Res =  0.1263E+04
 MRCHDU: Convergence failed at  90  side 1    Res =  0.5759E+02
 MRCHDU: Convergence failed at  91  side 1    Res =  0.5236E+02
 MRCHDU: Convergence failed at  92  side 1    Res =  0.8938E+02
 MRCHDU: Convergence failed at  93  side 1    Res =  0.6178E+02
 MRCHDU: Convergence failed at  94  side 1    Res =  0.2454E+03
 MRCHDU: Convergence failed at  95  side 1    Res =  0.1115E+03
 MRCHDU: Convergence failed at  96  side 1    Res =  0.7434E+02
 MRCHDU: Convergence failed at  97  side 1    Res =  0.8888E+02
 MRCHDU: Convergence failed at  98  side 1    Res =  0.5593E+02
 MRCHDU: Convergence failed at  70  side 2    Res =  0.2832E+01
 MRCHDU: Convergence failed at  71  side 2    Res =  0.3669E+01
 MRCHDU: Convergence failed at  72  side 2    Res =  0.2169E+01
 MRCHDU: Convergence failed at  73  side 2    Res =  0.6909E+02
 MRCHDU: Convergence failed at  74  side 2    Res =  0.8752E+01
 MRCHDU: Convergence failed at  75  side 2    Res =  0.2748E+02
 Side 1  free  transition at x/c =  0.1611   54
 Side 2 forced transition at x/c =  1.0001   64

   2   rms: 0.2484E+01   max: 0.1208E+02   D at   68  2   RLX: 0.124
       a = 11.000      CL =  3.5226
      Cm = -0.8300     CD =  0.00723   =>   CDf =  0.00370    CDp =  0.00353

 MRCHDU: Convergence failed at  62  side 1    Res =  0.1491E+00
 MRCHDU: Convergence failed at  64  side 1    Res =  0.4398E+00
 MRCHDU: Convergence failed at  65  side 1    Res =  0.3574E+00
 MRCHDU: Convergence failed at  66  side 1    Res =  0.1269E+00
 MRCHDU: Convergence failed at  68  side 1    Res =  0.4585E+00
 MRCHDU: Convergence failed at  69  side 1    Res =  0.4350E+00
 MRCHDU: Convergence failed at  70  side 1    Res =  0.4089E+00
 MRCHDU: Convergence failed at  71  side 1    Res =  0.3763E+00
 MRCHDU: Convergence failed at  72  side 1    Res =  0.3305E+00
 MRCHDU: Convergence failed at  73  side 1    Res =  0.2522E+00
 MRCHDU: Convergence failed at  74  side 1    Res =  0.1102E+00
 MRCHDU: Convergence failed at  76  side 1    Res =  0.2173E+00
 MRCHDU: Convergence failed at  77  side 1    Res =  0.2129E+00
 MRCHDU: Convergence failed at  78  side 1    Res =  0.2083E+00
 MRCHDU: Convergence failed at  79  side 1    Res =  0.2033E+00
 MRCHDU: Convergence failed at  80  side 1    Res =  0.1979E+00
 MRCHDU: Convergence failed at  81  side 1    Res =  0.1921E+00
 MRCHDU: Convergence failed at  82  side 1    Res =  0.1859E+00
 MRCHDU: Convergence failed at  83  side 1    Res =  0.1789E+00
 MRCHDU: Convergence failed at  84  side 1    Res =  0.1713E+00
 MRCHDU: Convergence failed at  85  side 1    Res =  0.1630E+00
 MRCHDU: Convergence failed at  86  side 1    Res =  0.1533E+00
 MRCHDU: Convergence failed at  87  side 1    Res =  0.1422E+00
 MRCHDU: Convergence failed at  88  side 1    Res =  0.1284E+00
 MRCHDU: Convergence failed at  89  side 1    Res =  0.1103E+00
 MRCHDU: Convergence failed at  90  side 1    Res =  0.7946E-01
 MRCHDU: Convergence failed at  68  side 2    Res =  0.4585E+01
 MRCHDU: Convergence failed at  69  side 2    Res =  0.1014E+02
 Side 1  free  transition at x/c =  0.1534   54
 Side 2 forced transition at x/c =  1.0001   64

   3   rms: 0.5353E+00   max: 0.4487E+01   D at   90  1   RLX: 0.334
       a = 11.000      CL =  2.4661
      Cm = -0.4247     CD =  0.03577   =>   CDf =  0.00440    CDp =  0.03138

 MRCHDU: Convergence failed at  84  side 1    Res =  0.6306E+01
 MRCHDU: Convergence failed at  85  side 1    Res =  0.4373E+01
 MRCHDU: Convergence failed at  86  side 1    Res =  0.6712E+00
 Side 1  free  transition at x/c =  0.1529   54
 Side 2 forced transition at x/c =  1.0001   64

   4   rms: 0.3552E+00   max: -.4645E+00   U at   98  1   RLX: 0.486
       a = 11.000      CL =  2.1856
      Cm = -0.2740     CD =  0.05084   =>   CDf =  0.00619    CDp =  0.04465

 Side 1  free  transition at x/c =  0.1561   55
 Side 2 forced transition at x/c =  1.0001   63

   5   rms: 0.8105E+00   max: -.3541E+01   D at   77  1   RLX: 0.141
       a = 11.000      CL =  2.1080
      Cm = -0.2456     CD =  0.03977   =>   CDf =  0.00578    CDp =  0.03399

 Side 1  free  transition at x/c =  0.1632   56
 Side 2 forced transition at x/c =  1.0001   63

   6   rms: 0.3625E+00   max: -.1645E+01   D at   67  1   RLX: 0.304
       a = 11.000      CL =  2.0533
      Cm = -0.2140     CD =  0.03426   =>   CDf =  0.00705    CDp =  0.02721

 Side 1  free  transition at x/c =  0.1642   56
 Side 2 forced transition at x/c =  1.0001   63

   7   rms: 0.2906E+00   max: -.1292E+01   D at   63  1   RLX: 0.387
       a = 11.000      CL =  2.0200
      Cm = -0.1876     CD =  0.03321   =>   CDf =  0.00745    CDp =  0.02576

 Side 1  free  transition at x/c =  0.1645   56
 Side 2 forced transition at x/c =  1.0001   63

   8   rms: 0.1809E+00   max: -.7833E+00   D at   58  1   RLX: 0.638
       a = 11.000      CL =  1.9654
      Cm = -0.1605     CD =  0.03251   =>   CDf =  0.00800    CDp =  0.02451

 Side 1  free  transition at x/c =  0.1628   55
 Side 2 forced transition at x/c =  1.0001   63

   9   rms: 0.1187E+00   max: 0.3760E+00   D at   89  1
       a = 11.000      CL =  1.8298
      Cm = -0.1321     CD =  0.03772   =>   CDf =  0.00867    CDp =  0.02905

 Side 1  free  transition at x/c =  0.1589   54
 Side 2 forced transition at x/c =  1.0001   64

  10   rms: 0.1430E-01   max: 0.9389E-01   D at   74  2
       a = 11.000      CL =  1.8156
      Cm = -0.1313     CD =  0.03919   =>   CDf =  0.00812    CDp =  0.03107

 Side 1  free  transition at x/c =  0.1589   54
 Side 2 forced transition at x/c =  1.0001   64

  11   rms: 0.1033E-02   max: 0.2075E-01   D at   75  2
       a = 11.000      CL =  1.8156
      Cm = -0.1313     CD =  0.03917   =>   CDf =  0.00809    CDp =  0.03107

 Side 1  free  transition at x/c =  0.1589   54
 Side 2 forced transition at x/c =  1.0001   64

  12   rms: 0.3519E-04   max: 0.1610E-03   D at   76  2
       a = 11.000      CL =  1.8156
      Cm = -0.1313     CD =  0.03917   =>   CDf =  0.00809    CDp =  0.03108

 Point added to stored polar  1
 Point written to save file  000142M0.1.log                                  
 Dump file unspecified or not available
 Calculating wake trajectory ...
 Calculating source influence matrix ...

 Solving BL system ...

 Side 1  free  transition at x/c =  0.1589   54
 Side 2 forced transition at x/c =  1.0001   64

   1   rms: 0.1121E+00   max: 0.1754E+00   D at   78  2   RLX: 0.661
       a = 12.000      CL =  1.8537
      Cm = -0.1271     CD =  0.04180   =>   CDf =  0.00780    CDp =  0.03399

 Side 1  free  transition at x/c =  0.1549   55
 Side 2 forced transition at x/c =  1.0001   63

   2   rms: 0.3635E-01   max: -.1216E+00   D at   55  1
       a = 12.000      CL =  1.8717
      Cm = -0.1250     CD =  0.04304   =>   CDf =  0.00799    CDp =  0.03504

 Side 1  free  transition at x/c =  0.1537   55
 Side 2 forced transition at x/c =  1.0001   63

   3   rms: 0.2638E-02   max: -.1379E-01   D at   91  1
       a = 12.000      CL =  1.8734
      Cm = -0.1252     CD =  0.04296   =>   CDf =  0.00799    CDp =  0.03497

 Side 1  free  transition at x/c =  0.1536   55
 Side 2 forced transition at x/c =  1.0001   63

   4   rms: 0.1736E-03   max: -.8437E-03   D at   75  2
       a = 12.000      CL =  1.8735
      Cm = -0.1253     CD =  0.04296   =>   CDf =  0.00800    CDp =  0.03496

 Side 1  free  transition at x/c =  0.1536   55
 Side 2 forced transition at x/c =  1.0001   63

   5   rms: 0.2896E-05   max: 0.5221E-04   C at   63  2
       a = 12.000      CL =  1.8736
      Cm = -0.1253     CD =  0.04296   =>   CDf =  0.00800    CDp =  0.03496

 Point added to stored polar  1
 Point written to save file  000142M0.1.log                                  
 Dump file unspecified or not available
 Calculating wake trajectory ...
 Calculating source influence matrix ...

 Solving BL system ...

 Side 1  free  transition at x/c =  0.1536   55
 Side 2 forced transition at x/c =  1.0001   63

   1   rms: 0.1171E+00   max: 0.3945E+00   T at   55  1   RLX: 0.620
       a = 13.000      CL =  1.9164
      Cm = -0.1226     CD =  0.04536   =>   CDf =  0.00768    CDp =  0.03768

 Side 1  free  transition at x/c =  0.1512   55
 Side 2 forced transition at x/c =  1.0001   62

   2   rms: 0.4040E-01   max: 0.1854E+00   T at   55  1
       a = 13.000      CL =  1.9189
      Cm = -0.1186     CD =  0.04832   =>   CDf =  0.00796    CDp =  0.04036

 Side 1  free  transition at x/c =  0.1492   55
 Side 2 forced transition at x/c =  1.0001   62

   3   rms: 0.1713E-02   max: 0.1897E-01   D at   75  2
       a = 13.000      CL =  1.9191
      Cm = -0.1187     CD =  0.04828   =>   CDf =  0.00767    CDp =  0.04062

 Side 1  free  transition at x/c =  0.1490   55
 Side 2 forced transition at x/c =  1.0001   62

   4   rms: 0.7645E-04   max: 0.7810E-03   D at   75  2
       a = 13.000      CL =  1.9191
      Cm = -0.1187     CD =  0.04829   =>   CDf =  0.00767    CDp =  0.04063

 Point added to stored polar  1
 Point written to save file  000142M0.1.log                                  
 Dump file unspecified or not available
 Calculating wake trajectory ..Got result {'DD': 0.01986, 'Dmin': 0.02004, 'LL': -1.0243}
Completed successfully in 2.47 seconds. [{'DD': 0.01986, 'Dmin': 0.02004, 'LL': -1.0243}]
.
 Calculating source influence matrix ...

 Solving BL system ...

 Side 1  free  transition at x/c =  0.1490   55
 Side 2 forced transition at x/c =  1.0001   62

   1   rms: 0.1055E+00   max: 0.2900E+00   D at   86  1   RLX: 0.543
       a = 14.000      CL =  1.9339
      Cm = -0.1146     CD =  0.05186   =>   CDf =  0.00733    CDp =  0.04453

 Side 1  free  transition at x/c =  0.1463   56
 Side 2 forced transition at x/c =  1.0001   61

   2   rms: 0.4483E-01   max: 0.1043E+00   D at   75  2
       a = 14.000      CL =  1.9453
      Cm = -0.1114     CD =  0.05472   =>   CDf =  0.00743    CDp =  0.04729

 Side 1  free  transition at x/c =  0.1444   56
 Side 2 forced transition at x/c =  1.0001   61

   3   rms: 0.4703E-02   max: -.2888E-01   D at   56  1
       a = 14.000      CL =  1.9465
      Cm = -0.1116     CD =  0.05442   =>   CDf =  0.00731    CDp =  0.04711

 Side 1  free  transition at x/c =  0.1445   56
 Side 2 forced transition at x/c =  1.0001   61

   4   rms: 0.5694E-03   max: -.2091E-02   D at   90  1
       a = 14.000      CL =  1.9471
      Cm = -0.1116     CD =  0.05441   =>   CDf =  0.00731    CDp =  0.04710

 Side 1  free  transition at x/c =  0.1444   56
 Side 2 forced transition at x/c =  1.0001   61

   5   rms: 0.1416E-04   max: -.1327E-03   D at   75  2
       a = 14.000      CL =  1.9471
      Cm = -0.1116     CD =  0.05442   =>   CDf =  0.00732    CDp =  0.04710

 Point added to stored polar  1
 Point written to save file  000142M0.1.log                                  
 Dump file unspecified or not available
 Calculating wake trajectory ...
 Calculating source influence matrix ...

 Solving BL system ...

 Side 1  free  transition at x/c =  0.1444   56
 Side 2 forced transition at x/c =  1.0001   61

   1   rms: 0.1032E+00   max: 0.3015E+00   T at   56  1   RLX: 0.499
       a = 15.000      CL =  1.9652
      Cm = -0.1089     CD =  0.05747   =>   CDf =  0.00696    CDp =  0.05051

 Side 1  free  transition at x/c =  0.1426   57
 Side 2 forced transition at x/c =  1.0001   60

   2   rms: 0.5530E-01   max: 0.1830E+00   T at   57  1
       a = 15.000      CL =  1.9960
      Cm = -0.1071     CD =  0.05980   =>   CDf =  0.00728    CDp =  0.05253

 Side 1  free  transition at x/c =  0.1408   56
 Side 2 forced transition at x/c =  1.0001   60

   3   rms: 0.1013E-01   max: 0.4949E-01   D at   57  1
       a = 15.000      CL =  1.9853
      Cm = -0.1066     CD =  0.06087   =>   CDf =  0.00721    CDp =  0.05365

 Side 1  free  transition at x/c =  0.1405   56
 Side 2 forced transition at x/c =  1.0001   60

   4   rms: 0.5329E-03   max: 0.3225E-02   D at   89  1
       a = 15.000      CL =  1.9852
      Cm = -0.1066     CD =  0.06083   =>   CDf =  0.00717    CDp =  0.05366

 Side 1  free  transition at x/c =  0.1405   56
 Side 2 forced transition at x/c =  1.0001   60

   5   rms: 0.5389E-04   max: 0.2281E-03   D at   75  2
       a = 15.000      CL =  1.9851
      Cm = -0.1065     CD =  0.06083   =>   CDf =  0.00717    CDp =  0.05366

 Point added to stored polar  1
 Point written to save file  000142M0.1.log                                  
 Dump file unspecified or not available

.OPERva   c>  
 XFOIL   c>  
