Job launching after 0.34 seconds in submission.
Running python job.
Changed into dir /home/simonx/Documents/Udacity/Projects/capstone/PESM_NSGA2_CST_XFoil
Importing evaluationFunctionXFoil.py
Running evaluationFunctionXFoil.main()
0
1
2
0.04
resp: 
 ===================================================
  XFOIL Version 6.97
  Copyright (C) 2000   Mark Drela, Harold Youngren

  This software comes with ABSOLUTELY NO WARRANTY,
    subject to the GNU General Public License.

  Caveat computor
 ===================================================

 File  xfoil.def  not found

   QUIT    Exit program

  .OPER    Direct operating point(s)
  .MDES    Complex mapping design routine
  .QDES    Surface speed design routine
  .GDES    Geometry design routine

   SAVE f  Write airfoil to labeled coordinate file
   PSAV f  Write airfoil to plain coordinate file
   ISAV f  Write airfoil to ISES coordinate file
   MSAV f  Write airfoil to MSES coordinate file
   REVE    Reverse written-airfoil node ordering
   DELI i  Change written-airfoil file delimiters

   LOAD f  Read buffer airfoil from coordinate file
   NACA i  Set NACA 4,5-digit airfoil and buffer airfoil
   INTE    Set buffer airfoil by interpolating two airfoils
   NORM    Buffer airfoil normalization toggle
   HALF    Halve the number of points in buffer airfoil
   XYCM rr Change CM reference location, currently  0.25000 0.00000

   BEND    Display structural properties of current airfoil

   PCOP    Set current-airfoil panel nodes directly from buffer airfoil points
   PANE    Set current-airfoil panel nodes ( 160 ) based on curvature
  .PPAR    Show/change paneling

  .PLOP    Plotting options

   WDEF f  Write  current-settings file
   RDEF f  Reread current-settings file
   NAME s  Specify new airfoil name
   NINC    Increment name version number

   Z       Zoom    | (available in all menus)
   U       Unzoom  | 

 XFOIL   c>   ...............................................

  G raphics-enable flag:        T
  S ize of plot object          10.00"
  A spect ratio of plot object   0.5500
  P age dimensions              11.00 x  8.50"
  M argins from page edges       0.00",  0.00"
  F ont size (relative)          0.0150
  W indow/screen size fraction   0.8000
  B lowup input method:        Cursor    
  O rientation of plot:        Landscape 
  C olor PostScript output?     F

      Option, Value   (or <Return>)    c>   ...............................................

  G raphics-enable flag:        F
  S ize of plot object          10.00"
  A spect ratio of plot object   0.5500
  P age dimensions              11.00 x  8.50"
  M argins from page edges       0.00",  0.00"
  F ont size (relative)          0.0150
  W indow/screen size fraction   0.8000
  B lowup input method:        Cursor    
  O rientation of plot:        Landscape 
  C olor PostScript output?     F

      Option, Value   (or <Return>)    c>  
 XFOIL   c>  
 Labeled airfoil file.  Name:  000268                                          

 Number of input coordinate points: 200
 Clockwise ordering
 Max thickness =     0.169357  at x =   0.136
 Max camber    =     0.121344  at x =   0.453

  LE  x,y  =  -0.00000   0.00025  |   Chord =   0.99988
  TE  x,y  =   0.99988   0.00006  |

 Current airfoil nodes set from buffer airfoil nodes ( 200 )

 XFOIL   c>  
 You are working with the buffer airfoil

.GDES   c>  
  i       x        y      angle
   2   0.9990   0.0005    0.075
   3   0.9978   0.0011    0.058
   4   0.9961   0.0020    0.106
   5   0.9938   0.0031    0.085
   6   0.9911   0.0044    0.153
   7   0.9880   0.0060    0.140
   8   0.9843   0.0077    0.180
   9   0.9801   0.0097    0.180
  10   0.9755   0.0119    0.217
  11   0.9704   0.0144    0.220
  12   0.9649   0.0170    0.239
  13   0.9589   0.0198    0.256
  14   0.9524   0.0227    0.272
  15   0.9455   0.0259    0.279
  16   0.9382   0.0291    0.297
  17   0.9304   0.0326    0.302
  18   0.9222   0.0362    0.322
  19   0.9135   0.0398    0.321
  20   0.9045   0.0437    0.330
  21   0.8951   0.0476    0.341
  22   0.8853   0.0516    0.348
  23   0.8751   0.0557    0.355
  24   0.8645   0.0598    0.356
  25   0.8536   0.0641    0.357
  26   0.8423   0.0683    0.374
  27   0.8307   0.0727    0.364
  28   0.8187   0.0770    0.379
  29   0.8065   0.0814    0.382
  30   0.7939   0.0858    0.380
  31   0.7810   0.0902    0.396
  32   0.7679   0.0946    0.393
  33   0.7545   0.0990    0.405
  34   0.7409   0.1033    0.409
  35   0.7270   0.1076    0.421
  36   0.7129   0.1119    0.430
  37   0.6986   0.1161    0.444
  38   0.6841   0.1203    0.451
  39   0.6694   0.1244    0.469
  40   0.6545   0.1284    0.484
  41   0.6395   0.1323    0.505
  42   0.6243   0.1361    0.519
  43   0.6091   0.1398    0.540
  44   0.5937   0.1434    0.569
  45   0.5782   0.1468    0.587
  46   0.5627   0.1501    0.617
  47   0.5471   0.1532    0.642
  48   0.5314   0.1561    0.675
  49   0.5157   0.1589    0.701
  50   0.5000   0.1614    0.737
  51   0.4843   0.1638    0.772
  52   0.4686   0.1659    0.802
  53   0.4529   0.1678    0.838
  54   0.4373   0.1695    0.880
  55   0.4218   0.1709    0.908
  56   0.4063   0.1720    0.953
  57   0.3909   0.1729    0.987
  58   0.3757   0.1736    1.024
  59   0.3605   0.1739    1.064
  60   0.3455   0.1740    1.096
  61   0.3306   0.1738    1.136
  62   0.3159   0.1733    1.167
  63   0.3014   0.1725    1.206
  64   0.2871   0.1714    1.234
  65   0.2730   0.1700    1.267
  66   0.2591   0.1684    1.302
  67   0.2455   0.1664    1.329
  68   0.2321   0.1642    1.357
  69   0.2190   0.1617    1.387
  70   0.2061   0.1589    1.416
  71   0.1935   0.1559    1.445
  72   0.1813   0.1526    1.468
  73   0.1693   0.1490    1.501
  74   0.1577   0.1452    1.536
  75   0.1464   0.1412    1.561
  76   0.1355   0.1370    1.594
  77   0.1249   0.1326    1.640
  78   0.1147   0.1280    1.681
  79   0.1049   0.1232    1.730
  80   0.0955   0.1182    1.781
  81   0.0865   0.1131    1.852
  82   0.0778   0.1078    1.915
  83   0.0696   0.1024    2.005
  84   0.0618   0.0969    2.088
  85   0.0545   0.0913    2.201
  86   0.0476   0.0856    2.326
  87   0.0411   0.0798    2.449
  88   0.0351   0.0739    2.598
  89   0.0296   0.0679    2.767
  90   0.0245   0.0619    2.940
  91   0.0199   0.0558    3.136
  92   0.0157   0.0497    3.347
  93   0.0120   0.0436    3.528
  94   0.0089   0.0374    3.766
  95   0.0062   0.0312    3.947
  96   0.0039   0.0250    4.130
  97   0.0022   0.0188    4.299
  98   0.0010   0.0125    4.407
  99   0.0002   0.0063    4.486
 100   0.0000   0.0000    4.859
 101   0.0002  -0.0054    5.228
 102   0.0010  -0.0108    5.340
 103   0.0022  -0.0161    5.530
 104   0.0039  -0.0212    5.762
 105   0.0062  -0.0260    6.027
 106   0.0089  -0.0306    6.318
 107   0.0120  -0.0349    6.548
 108   0.0157  -0.0388    6.728
 109   0.0199  -0.0422    6.775
 110   0.0245  -0.0453    6.677
 111   0.0296  -0.0478    6.455
 112   0.0351  -0.0498    6.071
 113   0.0411  -0.0513    5.621
 114   0.0476  -0.0523    5.097
 115   0.0545  -0.0526    4.547
 116   0.0618  -0.0525    4.019
 117   0.0696  -0.0517    3.500
 118   0.0778  -0.0505    3.041
 119   0.0865  -0.0487    2.598
 120   0.0955  -0.0463    2.211
 121   0.1049  -0.0435    1.858
 122   0.1147  -0.0402    1.538
 123   0.1249  -0.0365    1.253
 124   0.1355  -0.0323    0.992
 125   0.1464  -0.0278    0.761
 126   0.1577  -0.0230    0.538
 127   0.1693  -0.0179    0.351
 128   0.1813  -0.0126    0.165
 129   0.1935  -0.0071   -0.007
 130   0.2061  -0.0015   -0.160
 131   0.2190   0.0042   -0.306
 132   0.2321   0.0100   -0.437
 133   0.2455   0.0157   -0.567
 134   0.2591   0.0214   -0.683
 135   0.2730   0.0270   -0.787
 136   0.2871   0.0325   -0.892
 137   0.3014   0.0378   -0.984
 138   0.3159   0.0429   -1.057
 139   0.3306   0.0477   -1.132
 140   0.3455   0.0523   -1.194
 141   0.3605   0.0566   -1.251
 142   0.3757   0.0606   -1.288
 143   0.3909   0.0642   -1.321
 144   0.4063   0.0675   -1.344
 145   0.4218   0.0704   -1.352
 146   0.4373   0.0730   -1.357
 147   0.4529   0.0752   -1.351
 148   0.4686   0.0771   -1.331
 149   0.4843   0.0785   -1.306
 150   0.5000   0.0796   -1.276
 151   0.5157   0.0804   -1.237
 152   0.5314   0.0808   -1.193
 153   0.5471   0.0809   -1.140
 154   0.5627   0.0807   -1.093
 155   0.5782   0.0802   -1.033
 156   0.5937   0.0794   -0.983
 157   0.6091   0.0783   -0.915
 158   0.6243   0.0770   -0.864
 159   0.6395   0.0755   -0.807
 160   0.6545   0.0738   -0.742
 161   0.6694   0.0719   -0.691
 162   0.6841   0.0699   -0.635
 163   0.6986   0.0677   -0.584
 164   0.7129   0.0654   -0.534
 165   0.7270   0.0630   -0.489
 166   0.7409   0.0605   -0.446
 167   0.7545   0.0579   -0.406
 168   0.7679   0.0553   -0.366
 169   0.7810   0.0527   -0.330
 170   0.7939   0.0500   -0.302
 171   0.8065   0.0473   -0.270
 172   0.8187   0.0447   -0.249
 173   0.8307   0.0420   -0.223
 174   0.8423   0.0394   -0.202
 175   0.8536   0.0368   -0.185
 176   0.8645   0.0342   -0.169
 177   0.8751   0.0317   -0.159
 178   0.8853   0.0293   -0.138
 179   0.8951   0.0269   -0.136
 180   0.9045   0.0246   -0.122
 181   0.9135   0.0224   -0.118
 182   0.9222   0.0202   -0.105
 183   0.9304   0.0182   -0.109
 184   0.9382   0.0162   -0.098
 185   0.9455   0.0143   -0.085
 186   0.9524   0.0125   -0.091
 187   0.9589   0.0109   -0.078
 188   0.9649   0.0093   -0.079
 189   0.9704   0.0079   -0.076
 190   0.9755   0.0065   -0.060
 191   0.9801   0.0053   -0.065
 192   0.9843   0.0042   -0.071
 193   0.9880   0.0032   -0.030
 194   0.9911   0.0024   -0.053
 195   0.9938   0.0017   -0.010
 196   0.9961   0.0011   -0.063
 197   0.9978   0.0006   -0.018
 198   0.9990   0.0003    0.030
 199   0.9998   0.0001   -0.124

 Maximum panel corner angle =  6.775   at  i,x,y  = 109   0.0199  -0.0422

 Enter corner angle criterion for refinement (deg):   3.388
 Enter type of spline parameter (1=uniform, 2=arclength):   1
 Enter refinement x limits:  -0.10000   1.10000
 Number of points added:           50
 Max thickness =     0.169340  at x =   0.136
 Max camber    =     0.121479  at x =   0.453

 Maximum panel corner angle =  3.136   at  i,x,y  =  91   0.0199   0.0558

.GDES   c>  
 Buffer airfoil is not identical to current airfoil

 XFOIL   c>  
 Blunt trailing edge.  Gap =  0.00028

 Paneling parameters used...
   Number of panel nodes       160
   Panel bunching parameter    1.000
   TE/LE panel density ratio   0.150
   Refined-area/LE panel density ratio    0.200
   Top    side refined area x/c limits  1.000 1.000
   Bottom side refined area x/c limits  1.000 1.000

 XFOIL   c>  
Enter output filename   s>  
 XFOIL   c>  
.OPERi   c>   Current iteration limit:          20

Enter new iteration limit   i>  
Enter new iteration limit   i>  
Enter new iteration limit   i>  
.OPERi   c>  
 M  =    0.0000
 Re =  0.3000E+06

.OPERv   c>  
 Sonic Cp =   -420.65      Sonic Q/Qinf =    22.825


.OPERv   c>  
 Polar  1 newly created for accumulation
 Airfoil archived with polar: 000268                                          

Enter  polar save filename  OR  <return> for no file   s>  
 New polar save file available

Enter  polar dump filename  OR  <return> for no file   s>  
 Polar dump file will NOT be written

 Polar accumulation enabled

.OPERva   c>   Calculating unit vorticity distributions ...
 Calculating wake trajectory ...
 Calculating source influence matrix ...

 Solving BL system ...

 Initializing BL ...
    side            1  ...
 MRCHUE: Inverse mode at  55     Hk =   4.359
 MRCHUE: Inverse mode at  56     Hk =   5.266
 MRCHUE: Inverse mode at  57     Hk =   6.164
 MRCHUE: Inverse mode at  58     Hk =   7.061
 MRCHUE: Inverse mode at  59     Hk =   7.959
 MRCHUE: Inverse mode at  60     Hk =   8.861
 MRCHUE: Inverse mode at  61     Hk =   6.237
 MRCHUE: Inverse mode at  62     Hk =   3.314
 MRCHUE: Inverse mode at  83     Hk =   2.500
 MRCHUE: Convergence failed at  84  side 1    Res =  0.4357E+01
    side            2  ...
 MRCHUE: Inverse mode at  25     Hk =   3.800
 MRCHUE: Inverse mode at  26     Hk =   4.390
 MRCHUE: Inverse mode at  27     Hk =   4.976
 MRCHUE: Inverse mode at  28     Hk =   5.565
 MRCHUE: Inverse mode at  29     Hk =   6.165
 MRCHUE: Inverse mode at  30     Hk =   6.786
 MRCHUE: Inverse mode at  31     Hk =   7.433
 MRCHUE: Inverse mode at  32     Hk =   8.117
 MRCHUE: Inverse mode at  33     Hk =   8.845
 MRCHUE: Inverse mode at  34     Hk =   9.627
 MRCHUE: Inverse mode at  35     Hk =   7.912
 MRCHUE: Inverse mode at  36     Hk =   4.662
 MRCHUE: Inverse mode at  37     Hk =   2.708
 MRCHUE: Inverse mode at  38     Hk =   2.500
 MRCHUE: Inverse mode at  39     Hk =   2.500
 MRCHUE: Inverse mode at  40     Hk =   2.500
 MRCHUE: Inverse mode at  41     Hk =   2.500
 MRCHUE: Inverse mode at  42     Hk =   2.500
 MRCHUE: Inverse mode at  43     Hk =   2.500
 MRCHUE: Inverse mode at  44     Hk =   2.500
 MRCHUE: Inverse mode at  45     Hk =   2.500
 MRCHUE: Inverse mode at  46     Hk =   2.500
 MRCHUE: Inverse mode at  47     Hk =   2.500
 MRCHUE: Inverse mode at  48     Hk =   2.500
 MRCHUE: Inverse mode at  49     Hk =   2.500
 MRCHUE: Inverse mode at  50     Hk =   2.500
 MRCHUE: Inverse mode at  51     Hk =   2.500
 MRCHUE: Inverse mode at  52     Hk =   2.500
 MRCHUE: Inverse mode at  53     Hk =   2.500
 MRCHUE: Inverse mode at  54     Hk =   2.500
 MRCHUE: Inverse mode at  55     Hk =   2.500
 MRCHUE: Inverse mode at  56     Hk =   2.500
 MRCHUE: Inverse mode at  57     Hk =   2.500
 MRCHUE: Inverse mode at  58     Hk =   2.500
 MRCHUE: Inverse mode at  59     Hk =   2.500
 MRCHUE: Inverse mode at  60     Hk =   2.500
 MRCHUE: Inverse mode at  61     Hk =   2.500

 MRCHDU: Convergence failed at  84  side 1    Res =  0.5043E+01
 Side 1  free  transition at x/c =  0.5004   61
 Side 2  free  transition at x/c =  0.1571   35

   1   rms: 0.7461E+00   max: 0.5622E+01   T at   35  2   RLX: 0.267
       a =  2.000      CL =  1.5219
      Cm = -0.2920     CD =  0.01353   =>   CDf =  0.00785    CDp =  0.00568

 MRCHDU: Convergence failed at  36  side 2    Res =  0.3762E+02
 MRCHDU: Convergence failed at  37  side 2    Res =  0.1981E+02
 MRCHDU: Convergence failed at  38  side 2    Res =  0.2152E+02
 MRCHDU: Convergence failed at  39  side 2    Res =  0.2495E+02
 MRCHDU: Convergence failed at  40  side 2    Res =  0.7320E+02
 MRCHDU: Convergence failed at  41  side 2    Res =  0.3182E+03
 MRCHDU: Convergence failed at  42  side 2    Res =  0.7060E+02
 MRCHDU: Convergence failed at  43  side 2    Res =  0.4839E+02
 MRCHDU: Convergence failed at  44  side 2    Res =  0.1293E+03
 MRCHDU: Convergence failed at  45  side 2    Res =  0.6288E+02
 MRCHDU: Convergence failed at  46  side 2    Res =  0.5201E+02
 MRCHDU: Convergence failed at  47  side 2    Res =  0.1038E+03
 MRCHDU: Convergence failed at  48  side 2    Res =  0.2652E+03
 MRCHDU: Convergence failed at  49  side 2    Res =  0.3338E+02
 MRCHDU: Convergence failed at  50  side 2    Res =  0.3496E+02
 MRCHDU: Convergence failed at  51  side 2    Res =  0.2970E+02
 MRCHDU: Convergence failed at  52  side 2    Res =  0.3059E+02
 MRCHDU: Convergence failed at  53  side 2    Res =  0.3136E+02
 MRCHDU: Convergence failed at  54  side 2    Res =  0.3234E+02
 MRCHDU: Convergence failed at  55  side 2    Res =  0.1832E+03
 MRCHDU: Convergence failed at  56  side 2    Res =  0.2536E+03
 MRCHDU: Convergence failed at  57  side 2    Res =  0.1072E+03
 MRCHDU: Convergence failed at  58  side 2    Res =  0.6413E+02
 MRCHDU: Convergence failed at  59  side 2    Res =  0.7296E+02
 MRCHDU: Convergence failed at  60  side 2    Res =  0.8596E+02
 MRCHDU: Convergence failed at  61  side 2    Res =  0.9351E+02
 MRCHDU: Convergence failed at  62  side 2    Res =  0.2064E+04
 MRCHDU: Convergence failed at  63  side 2    Res =  0.1163E+03
 MRCHDU: Convergence failed at  64  side 2    Res =  0.3645E+02
 MRCHDU: Convergence failed at  65  side 2    Res =  0.6101E+02
 MRCHDU: Convergence failed at  66  side 2    Res =  0.3058E+03
 MRCHDU: Convergence failed at  67  side 2    Res =  0.2720E+04
 MRCHDU: Convergence failed at  68  side 2    Res =  0.1004E+03
 MRCHDU: Convergence failed at  69  side 2    Res =  0.4423E+02
 MRCHDU: Convergence failed at  70  side 2    Res =  0.3215E+02
 MRCHDU: Convergence failed at  71  side 2    Res =  0.1092E+03
 MRCHDU: Convergence failed at  72  side 2    Res =  0.7246E+02
 MRCHDU: Convergence failed at  73  side 2    Res =  0.9096E+02
 MRCHDU: Convergence failed at  74  side 2    Res =  0.5107E+02
 MRCHDU: Convergence failed at  75  side 2    Res =  0.4033E+02
 MRCHDU: Convergence failed at  76  side 2    Res =  0.5781E+02
 MRCHDU: Convergence failed at  77  side 2    Res =  0.4897E+02
 MRCHDU: Convergence failed at  78  side 2    Res =  0.3384E+02
 MRCHDU: Convergence failed at  79  side 2    Res =  0.3056E+03
 MRCHDU: Convergence failed at  81  side 2    Res =  0.3375E-01
 Side 1  free  transition at x/c =  0.5070   60
 Side 2  free  transition at x/c =  0.1418   35

   2   rms: 0.8455E+00   max: 0.8014E+01   T at   35  2   RLX: 0.187
       a =  2.000      CL =  0.9806
      Cm = -0.1183     CD =  0.00925   =>   CDf =  0.00648    CDp =  0.00277

 MRCHDU: Convergence failed at  35  side 2    Res =  0.5253E+02
 MRCHDU: Convergence failed at  81  side 2    Res =  0.2863E+00
 MRCHDU: Convergence failed at  82  side 2    Res =  0.5638E+00
 MRCHDU: Convergence failed at  83  side 2    Res =  0.7099E+00
 MRCHDU: Convergence failed at  84  side 2    Res =  0.8201E+00
 MRCHDU: Convergence failed at  85  side 2    Res =  0.9063E+00
 MRCHDU: Convergence failed at  86  side 2    Res =  0.9751E+00
 MRCHDU: Convergence failed at  87  side 2    Res =  0.1031E+01
 MRCHDU: Convergence failed at  88  side 2    Res =  0.1076E+01
 MRCHDU: Convergence failed at  89  side 2    Res =  0.1113E+01
 MRCHDU: Convergence failed at  90  side 2    Res =  0.1142E+01
 MRCHDU: Convergence failed at  91  side 2    Res =  0.1165E+01
 MRCHDU: Convergence failed at  92  side 2    Res =  0.1181E+01
 MRCHDU: Convergence failed at  93  side 2    Res =  0.1191E+01
 MRCHDU: Convergence failed at  94  side 2    Res =  0.1194E+01
 MRCHDU: Convergence failed at  95  side 2    Res =  0.1192E+01
 MRCHDU: Convergence failed at  96  side 2    Res =  0.1183E+01
 MRCHDU: Convergence failed at  97  side 2    Res =  0.1167E+01
 MRCHDU: Convergence failed at  98  side 2    Res =  0.1145E+01
 MRCHDU: Convergence failed at  99  side 2    Res =  0.1116E+01
 MRCHDU: Convergence failed at 100  side 2    Res =  0.1079E+01
 MRCHDU: Convergence failed at 101  side 2    Res =  0.1036E+01
 Side 1  free  transition at x/c =  0.5117   60
 Side 2  free  transition at x/c =  0.1348   34

   3   rms: 0.5972E+00   max: 0.7829E+01   T at   34  2   RLX: 0.192
       a =  2.000      CL =  1.0946
      Cm = -0.1750     CD =  0.02530   =>   CDf =  0.00657    CDp =  0.01873

 Side 1  free  transition at x/c =  0.5181   60
 Side 2  free  transition at x/c =  0.1324   35

   4   rms: 0.3805E+01   max: 0.3651E+02   T at   35  2   RLX: 0.039
       a =  2.000      CL =  1.0165
      Cm = -0.1785     CD =  0.04547   =>   CDf =  0.00630    CDp =  0.03917

 MRCHDU: Convergence failed at  36  side 2    Res =  0.2089E+02
 Side 1  free  transition at x/c =  0.5230   59
 Side 2  free  transition at x/c =  0.1314   36

   5   rms: 0.7122E+00   max: 0.7587E+01   D at   38  2   RLX: 0.198
       a =  2.000      CL =  0.9039
      Cm = -0.1642     CD =  0.04137   =>   CDf =  0.00614    CDp =  0.03522

 Side 1  free  transition at x/c =  0.5295   59
 Side 2  free  transition at x/c =  0.1264   35

   6   rms: 0.5135E+00   max: 0.4517E+01   T at   35  2   RLX: 0.330
       a =  2.000      CL =  0.8667
      Cm = -0.1460     CD =  0.04820   =>   CDf =  0.00598    CDp =  0.04222

 Side 1  free  transition at x/c =  0.5357   60
 Side 2  free  transition at x/c =  0.1933   41

   7   rms: 0.2519E+01   max: 0.1802E+02   T at   41  2   RLX: 0.083
       a =  2.000      CL =  0.6593
      Cm = -0.1377     CD =  0.04604   =>   CDf =  0.00598    CDp =  0.04006

 MRCHDU: Convergence failed at  82  side 2    Res =  0.1848E+02
 MRCHDU: Convergence failed at  83  side 2    Res =  0.2649E+01
 Side 1  free  transition at x/c =  0.5455   58
 Side 2  free  transition at x/c =  0.1528   40

   8   rms: 0.8439E+00   max: 0.1288E+02   T at   40  2   RLX: 0.116
       a =  2.000      CL =  0.5411
      Cm = -0.1112     CD =  0.03981   =>   CDf =  0.00539    CDp =  0.03442

 Side 1  free  transition at x/c =  0.5474   58
 Side 2  free  transition at x/c =  0.1443   39

   9   rms: 0.4723E+00   max: 0.7638E+01   T at   39  2   RLX: 0.196
       a =  2.000      CL =  0.6091
      Cm = -0.1250     CD =  0.03689   =>   CDf =  0.00534    CDp =  0.03155

 Side 1  free  transition at x/c =  0.5473   58
 Side 2  free  transition at x/c =  0.1341   38

  10   rms: 0.3729E+00   max: 0.4050E+01   T at   38  2   RLX: 0.370
       a =  2.000      CL =  0.7275
      Cm = -0.1369     CD =  0.04021   =>   CDf =  0.00518    CDp =  0.03503

 Side 1  free  transition at x/c =  0.5458   59
 Side 2  free  transition at x/c =  0.1255   36

  11   rms: 0.2814E+00   max: 0.1584E+01   T at   36  2   RLX: 0.482
       a =  2.000      CL =  0.8713
      Cm = -0.1523     CD =  0.04091   =>   CDf =  0.00522    CDp =  0.03569

 Side 1  free  transition at x/c =  0.5427   59
 Side 2  free  transition at x/c =  0.1202   35

  12   rms: 0.2286E+00   max: 0.1007E+01   T at   36  2   RLX: 0.597
       a =  2.000      CL =  1.0328
      Cm = -0.1799     CD =  0.03906   =>   CDf =  0.00506    CDp =  0.03400

 Side 1  free  transition at x/c =  0.5393   60
 Side 2  free  transition at x/c =  0.1202   34

  13   rms: 0.1713E+00   max: 0.5579E+00   T at   35  2
       a =  2.000      CL =  1.2757
      Cm = -0.2242     CD =  0.03326   =>   CDf =  0.00527    CDp =  0.02799

 Side 1  free  transition at x/c =  0.5351   60
 Side 2  free  transition at x/c =  0.1206   33

  14   rms: 0.3216E+00   max: 0.1369E+01   D at   34  2
       a =  2.000      CL =  1.2141
      Cm = -0.2056     CD =  0.03903   =>   CDf =  0.00602    CDp =  0.03301

 Side 1  free  transition at x/c =  0.5346   60
 Side 2  free  transition at x/c =  0.1203   33

  15   rms: 0.3220E+00   max: 0.2517E+01   D at   58  2   RLX: 0.596
       a =  2.000      CL =  1.2839
      Cm = -0.2212     CD =  0.03143   =>   CDf =  0.00642    CDp =  0.02501

 MRCHDU: Convergence failed at  58  side 2    Res =  0.1394E+01
 MRCHDU: Convergence failed at  59  side 2    Res =  0.1245E+01
 MRCHDU: Convergence failed at  60  side 2    Res =  0.1142E+01
 MRCHDU: Convergence failed at  61  side 2    Res =  0.1386E+01
 MRCHDU: Convergence failed at  62  side 2    Res =  0.1458E+01
 Side 1  free  transition at x/c =  0.5340   60
 Side 2  free  transition at x/c =  0.1206   33

  16   rms: 0.1236E+00   max: 0.8189E+00   D at   57  2
       a =  2.000      CL =  1.2853
      Cm = -0.2252     CD =  0.03383   =>   CDf =  0.00595    CDp =  0.02788

 MRCHDU: Convergence failed at  51  side 2    Res =  0.9834E+01
 MRCHDU: Convergence failed at  52  side 2    Res =  0.5109E+01
 MRCHDU: Convergence failed at  53  side 2    Res =  0.1835E+02
 MRCHDU: Convergence failed at  54  side 2    Res =  0.2764E+02
 MRCHDU: Convergence failed at  55  side 2    Res =  0.1001E+04
 TRCHEK2: N2 convergence failed.
 x:  0.51752  0.52445  0.53554  N:  8.975  9.000  9.031  Nx:   7.062   dN:-0.517E+01
 TRCHEK2: N2 convergence failed.
 x:  0.51752  0.52585  0.53554  N:  8.975  9.000  9.034  Nx:   6.378   dN: 0.181E+02
 TRCHEK2: N2 convergence failed.
 x:  0.51752  0.52747  0.53554  N:  8.975  9.000  9.024  Nx:   5.898   dN: 0.164E+00
 TRCHEK2: N2 convergence failed.
 x:  0.51752  0.52717  0.53554  N:  8.975  9.000  9.017  Nx:   6.180   dN:-0.139E+00
 TRCHEK2: N2 convergence failed.
 x:  0.51752  0.52720  0.53554  N:  8.975  9.000  9.017  Nx:   6.175   dN:-0.238E+00
 TRCHEK2: N2 convergence failed.
 x:  0.51752  0.52719  0.53554  N:  8.975  9.000  9.017  Nx:   6.153   dN:-0.135E+00
 TRCHEK2: N2 convergence failed.
 x:  0.51752  0.52719  0.53554  N:  8.975  9.000  9.017  Nx:   6.154   dN:-0.214E+00
 TRCHEK2: N2 convergence failed.
 x:  0.51752  0.52725  0.53554  N:  8.975  9.000  9.017  Nx:   6.139   dN:-0.621E+00
 TRCHEK2: N2 convergence failed.
 x:  0.51752  0.52719  0.53554  N:  8.975  9.000  9.017  Nx:   6.139   dN:-0.191E+00
 TRCHEK2: N2 convergence failed.
 x:  0.51752  0.52723  0.53554  N:  8.975  9.000  9.017  Nx:   6.131   dN:-0.428E+00
 TRCHEK2: N2 convergence failed.
 x:  0.51752  0.52722  0.53554  N:  8.975  9.000  9.017  Nx:   6.113   dN:-0.186E+00
 TRCHEK2: N2 convergence failed.
 x:  0.51752  0.52722  0.53554  N:  8.975  9.000  9.017  Nx:   6.113   dN:-0.355E+00
 TRCHEK2: N2 convergence failed.
 x:  0.51752  0.52722  0.53554  N:  8.975  9.000  9.017  Nx:   6.097   dN:-0.177E+00
 TRCHEK2: N2 convergence failed.
 x:  0.51752  0.52722  0.53554  N:  8.975  9.000  9.017  Nx:   6.097   dN:-0.308E+00
 TRCHEK2: N2 convergence failed.
 x:  0.51752  0.52728  0.53554  N:  8.975  9.000  9.017  Nx:   6.082   dN:-0.249E+01
 TRCHEK2: N2 convergence failed.
 x:  0.51752  0.52722  0.53554  N:  8.975  9.000  9.017  Nx:   6.089   dN:-0.261E+00
 TRCHEK2: N2 convergence failed.
 x:  0.51752  0.52725  0.53554  N:  8.975  9.000  9.017  Nx:   6.080   dN:-0.854E+00
 TRCHEK2: N2 convergence failed.
 x:  0.51752  0.52722  0.53554  N:  8.975  9.000  9.017  Nx:   6.078   dN:-0.236E+00
 TRCHEK2: N2 convergence failed.
 x:  0.51752  0.52725  0.53554  N:  8.975  9.000  9.017  Nx:   6.069   dN:-0.593E+00
 TRCHEK2: N2 convergence failed.
 x:  0.51752  0.52736  0.53554  N:  8.975  9.000  9.025  Nx:   6.042   dN: 0.772E+00
 TRCHEK2: N2 convergence failed.
 x:  0.51752  0.52724  0.53554  N:  8.975  9.000  9.017  Nx:   6.073   dN:-0.376E+00
 TRCHEK2: N2 convergence failed.
 x:  0.51752  0.52728  0.53554  N:  8.975  9.000  9.025  Nx:   6.061   dN: 0.334E+02
 TRCHEK2: N2 convergence failed.
 x:  0.51752  0.52724  0.53554  N:  8.975  9.000  9.017  Nx:   6.064   dN:-0.320E+00
 MRCHDU: Convergence failed at  56  side 2    Res =  0.1203E+02
 MRCHDU: Convergence failed at  57  side 2    Res =  0.9391E+02
 MRCHDU: Convergence failed at  58  side 2    Res =  0.8324E+02
 MRCHDU: Convergence failed at  59  side 2    Res =  0.6864E+03
 MRCHDU: Convergence failed at  60  side 2    Res =  0.7789E+03
 MRCHDU: Convergence failed at  61  side 2    Res =  0.1417E+03
 MRCHDU: Convergence failed at  62  side 2    Res =  0.1675E+03
 MRCHDU: Convergence failed at  63  side 2    Res =  0.7022E+02
 MRCHDU: Convergence failed at  64  side 2    Res =  0.8405E+02
 MRCHDU: Convergence failed at  65  side 2    Res =  0.8730E+02
 MRCHDU: Convergence failed at  66  side 2    Res =  0.9723E+02
 MRCHDU: Convergence failed at  67  side 2    Res =  0.1031E+03
 MRCHDU: Convergence failed at  68  side 2    Res =  0.9752E+02
 MRCHDU: Convergence failed at  69  side 2    Res =  0.7308E+03
 MRCHDU: Convergence failed at  70  side 2    Res =  0.1600E+03
 MRCHDU: Convergence failed at  71  side 2    Res =  0.7310E+02
 MRCHDU: Convergence failed at  72  side 2    Res =  0.5756E+02
 MRCHDU: Convergence failed at  73  side 2    Res =  0.7758E+02
 MRCHDU: Convergence failed at  74  side 2    Res =  0.8767E+02
 MRCHDU: Convergence failed at  75  side 2    Res =  0.8158E+02
 MRCHDU: Convergence failed at  76  side 2    Res =  0.6297E+02
 MRCHDU: Convergence failed at  77  side 2    Res =  0.6317E+02
 MRCHDU: Convergence failed at  78  side 2    Res =  0.1222E+03
 MRCHDU: Convergence failed at  79  side 2    Res =  0.6702E+02
 MRCHDU: Convergence failed at  80  side 2    Res =  0.4673E+02
 Side 1  free  transition at x/c =  0.5340   60
 Side 2  free  transition at x/c =  0.4788   56

  17   rms: 0.1468E+02   max: 0.2134E+03   T at   56  2   RLX: 0.005
       a =  2.000      CL =  0.8714
      Cm = -0.0820     CD =  0.01479   =>   CDf =  0.00522    CDp =  0.00957

 Side 1  free  transition at x/c =  0.5340   60
 Side 2  free  transition at x/c =  0.4718   55

  18   rms: 0.1737E+02   max: 0.3177E+03   T at   55  2   RLX: 0.004
       a =  2.000      CL =  0.9521
      Cm = -0.1206     CD =  0.04759   =>   CDf =  0.00534    CDp =  0.04226

 Side 1  free  transition at x/c =  0.5340   60
 Side 2  free  transition at x/c =  0.4879   56

  19   rms: 0.5347E+02   max: 0.1253E+04   T at   56  2   RLX: 0.001
       a =  2.000      CL =  0.9228
      Cm = -0.1140     CD =  0.04879   =>   CDf =  0.00534    CDp =  0.04345

 Side 1  free  transition at x/c =  0.5344   60
 Side 2  free  transition at x/c =  0.4435   54

  20   rms: 0.1129E+01   max: 0.1096E+02   T at   54  2   RLX: 0.137
       a =  2.000      CL =  0.8879
      Cm = -0.1164     CD =  0.04951   =>   CDf =  0.00534    CDp =  0.04417

 Side 1  free  transition at x/c =  0.5366   61
 Side 2  free  transition at x/c =  0.1343   35

  21   rms: 0.4441E+00   max: 0.7191E+01   T at   35  2   RLX: 0.209
       a =  2.000      CL =  0.8816
      Cm = -0.1083     CD =  0.05508   =>   CDf =  0.00553    CDp =  0.04954

 Side 1  free  transition at x/c =  0.5434   60
 Side 2  free  transition at x/c =  0.1255   35

  22   rms: 0.3132E+00   max: 0.2919E+01   T at   35  2   RLX: 0.497
       a =  2.000      CL =  0.9463
      Cm = -0.1328     CD =  0.04818   =>   CDf =  0.00533    CDp =  0.04285

 Side 1  free  transition at x/c =  0.5473   60
 Side 2  free  transition at x/c =  0.1172   34

  23   rms: 0.2635E+00   max: 0.1034E+01   T at   34  2   RLX: 0.564
       a =  2.000      CL =  0.9786
      Cm = -0.1441     CD =  0.04648   =>   CDf =  0.00535    CDp =  0.04113

 Side 1  free  transition at x/c =  0.5454   60
 Side 2  free  transition at x/c =  0.1129   33

  24   rms: 0.2281E+00   max: -.8970E+00   D at   81  2   RLX: 0.557
       a =  2.000      CL =  0.9791
      Cm = -0.1456     CD =  0.05043   =>   CDf =  0.00524    CDp =  0.04519

 Side 1  free  transition at x/c =  0.5437   60
 Side 2  free  transition at x/c =  0.1120   33

  25   rms: 0.1955E+00   max: -.9162E+00   D at   81  2   RLX: 0.546
       a =  2.000      CL =  0.9376
      Cm = -0.1437     CD =  0.04907   =>   CDf =  0.00513    CDp =  0.04395
 VISCAL:  Convergence failed
 Calculating wake trajectory ...
 Calculating source influence matrix ...

 Solving BL system ...

 Side 1  free  transition at x/c =  0.5430   60
 Side 2  free  transition at x/c =  0.1106   33

   1   rms: 0.2215E+00   max: -.1048E+01   D at   81  2   RLX: 0.470
       a =  3.000      CL =  0.8450
      Cm = -0.1256     CD =  0.04896   =>   CDf =  0.00498    CDp =  0.04398

 Side 1  free  transition at x/c =  0.5358   60
 Side 2  free  transition at x/c =  0.1107   33

   2   rms: 0.2938E+00   max: -.3801E+01   T at   33  2   RLX: 0.132
       a =  3.000      CL =  0.8767
      Cm = -0.1348     CD =  0.04665   =>   CDf =  0.00485    CDp =  0.04180

 Side 1  free  transition at x/c =  0.5342   59
 Side 2  free  transition at x/c =  0.1107   33

   3   rms: 0.1725E+00   max: -.1180E+01   D at   81  2   RLX: 0.424
       a =  3.000      CL =  0.8942
      Cm = -0.1384     CD =  0.04235   =>   CDf =  0.00488    CDp =  0.03747

 Side 1  free  transition at x/c =  0.5294   59
 Side 2  free  transition at x/c =  0.1116   33

   4   rms: 0.2531E+00   max: -.1104E+01   D at   81  2   RLX: 0.453
       a =  3.000      CL =  1.0243
      Cm = -0.1635     CD =  0.03722   =>   CDf =  0.00485    CDp =  0.03236

 Side 1  free  transition at x/c =  0.5247   59
 Side 2  free  transition at x/c =  0.1116   33

   5   rms: 0.2334E+00   max: -.8061E+00   D at   81  2   RLX: 0.620
       a =  3.000      CL =  1.2310
      Cm = -0.2015     CD =  0.03016   =>   CDf =  0.00497    CDp =  0.02519

 Side 1  free  transition at x/c =  0.5192   60
 Side 2  free  transition at x/c =  0.1408   36

   6   rms: 0.1458E+02   max: 0.2391E+03   T at   36  2   RLX: 0.006
       a =  3.000      CL =  1.2564
      Cm = -0.2082     CD =  0.02669   =>   CDf =  0.00586    CDp =  0.02083

 Side 1  free  transition at x/c =  0.5191   60
 Side 2  free  transition at x/c =  0.1307   35

   7   rms: 0.6755E+00   max: 0.3571E+01   D at   36  2   RLX: 0.420
       a =  3.000      CL =  1.3621
      Cm = -0.2283     CD =  0.02218   =>   CDf =  0.00724    CDp =  0.01495

 Side 1  free  transition at x/c =  0.5167   61
 Side 2  free  transition at x/c =  0.1312   34

   8   rms: 0.1042E+01   max: 0.8883E+01   T at   34  2   RLX: 0.169
       a =  3.000      CL =  1.3874
      Cm = -0.2321     CD =  0.02188   =>   CDf =  0.00772    CDp =  0.01416

 MRCHDU: Convergence failed at  35  side 2    Res =  0.1647E+02
 Side 1  free  transition at x/c =  0.5160   61
 Side 2  free  transition at x/c =  0.1291   33

   9   rms: 0.2592E+00   max: 0.1600E+01   T at   33  2   RLX: 0.525
       a =  3.000      CL =  1.4829
      Cm = -0.2535     CD =  0.01870   =>   CDf =  0.00828    CDp =  0.01042

 Side 1  free  transition at x/c =  0.5146   61
 Side 2  free  transition at x/c =  0.1347   34

  10   rms: 0.2735E+00   max: 0.1280E+01   D at   36  2
       a =  3.000      CL =  1.5360
      Cm = -0.2640     CD =  0.02208   =>   CDf =  0.00717    CDp =  0.01491

 Side 1  free  transition at x/c =  0.5131   61
 Side 2  free  transition at x/c =  0.1374   33

  11   rms: 0.2858E+00   max: -.1060E+01   D at   61  2   RLX: 0.472
       a =  3.000      CL =  1.5549
      Cm = -0.2703     CD =  0.02014   =>   CDf =  0.00685    CDp =  0.01329

 Side 1  free  transition at x/c =  0.5128   61
 Side 2  free  transition at x/c =  0.1429   34

  12   rms: 0.2671E+00   max: 0.1125E+01   D at   35  2
       a =  3.000      CL =  1.5312
      Cm = -0.2627     CD =  0.02217   =>   CDf =  0.00734    CDp =  0.01483

 Side 1  free  transition at x/c =  0.5131   61
 Side 2  free  transition at x/c =  0.1386   33

  13   rms: 0.2518E+00   max: -.8986E+00   D at   42  2   RLX: 0.556
       a =  3.000      CL =  1.5546
      Cm = -0.2703     CD =  0.02011   =>   CDf =  0.00687    CDp =  0.01325

 Side 1  free  transition at x/c =  0.5129   61
 Side 2  free  transition at x/c =  0.1438   34

  14   rms: 0.3114E+00   max: 0.1376E+01   D at   35  2
       a =  3.000      CL =  1.5331
      Cm = -0.2633     CD =  0.02208   =>   CDf =  0.00740    CDp =  0.01468

 Side 1  free  transition at x/c =  0.5131   61
 Side 2  free  transition at x/c =  0.1389   33

  15   rms: 0.2311E+00   max: -.8725E+00   D at   60  2   RLX: 0.573
       a =  3.000      CL =  1.5542
      Cm = -0.2701     CD =  0.02035   =>   CDf =  0.00685    CDp =  0.01351

 Side 1  free  transition at x/c =  0.5128   61
 Side 2  free  transition at x/c =  0.1432   34

  16   rms: 0.3012E+00   max: 0.1280E+01   D at   35  2
       a =  3.000      CL =  1.5331
      Cm = -0.2633     CD =  0.02209   =>   CDf =  0.00740    CDp =  0.01469

 Side 1  free  transition at x/c =  0.5131   61
 Side 2  free  transition at x/c =  0.1388   33

  17   rms: 0.2438E+00   max: -.8904E+00   D at   62  2   RLX: 0.562
       a =  3.000      CL =  1.5546
      Cm = -0.2702     CD =  0.02023   =>   CDf =  0.00686    CDp =  0.01338

 Side 1  free  transition at x/c =  0.5128   61
 Side 2  free  transition at x/c =  0.1436   34

  18   rms: 0.3065E+00   max: 0.1335E+01   D at   35  2
       a =  3.000      CL =  1.5335
      Cm = -0.2634     CD =  0.02205   =>   CDf =  0.00741    CDp =  0.01465

 Side 1  free  transition at x/c =  0.5131   61
 Side 2  free  transition at x/c =  0.1389   33

  19   rms: 0.2345E+00   max: -.8757E+00   D at   60  2   RLX: 0.571
       a =  3.000      CL =  1.5544
      Cm = -0.2702     CD =  0.02031   =>   CDf =  0.00685    CDp =  0.01346

 Side 1  free  transition at x/c =  0.5128   61
 Side 2  free  transition at x/c =  0.1434   34

  20   rms: 0.3035E+00   max: 0.1300E+01   D at   35  2
       a =  3.000      CL =  1.5332
      Cm = -0.2633     CD =  0.02207   =>   CDf =  0.00740    CDp =  0.01467

 Side 1  free  transition at x/c =  0.5131   61
 Side 2  free  transition at x/c =  0.1388   33

  21   rms: 0.2400E+00   max: -.8831E+00   D at   61  2   RLX: 0.566
       a =  3.000      CL =  1.5547
      Cm = -0.2703     CD =  0.02027   =>   CDf =  0.00686    CDp =  0.01341

 Side 1  free  transition at x/c =  0.5128   61
 Side 2  free  transition at x/c =  0.1435   34

  22   rms: 0.3057E+00   max: 0.1324E+01   D at   35  2
       a =  3.000      CL =  1.5334
      Cm = -0.2633     CD =  0.02206   =>   CDf =  0.00740    CDp =  0.01465

 Side 1  free  transition at x/c =  0.5131   61
 Side 2  free  transition at x/c =  0.1388   33

  23   rms: 0.2370E+00   max: -.8800E+00   D at   60  2   RLX: 0.568
       a =  3.000      CL =  1.5543
      Cm = -0.2702     CD =  0.02029   =>   CDf =  0.00685    CDp =  0.01344

 Side 1  free  transition at x/c =  0.5128   61
 Side 2  free  transition at x/c =  0.1434   34

  24   rms: 0.3039E+00   max: 0.1308E+01   D at   35  2
       a =  3.000      CL =  1.5333
      Cm = -0.2633     CD =  0.02207   =>   CDf =  0.00740    CDp =  0.01466

 Side 1  free  transition at x/c =  0.5131   61
 Side 2  free  transition at x/c =  0.1388   33

  25   rms: 0.2392E+00   max: -.8822E+00   D at   61  2   RLX: 0.567
       a =  3.000      CL =  1.5545
      Cm = -0.2702     CD =  0.02027   =>   CDf =  0.00685    CDp =  0.01342
 VISCAL:  Convergence failed
 Calculating wake trajectory ...
 Calculating source influence matrix ...

 Solving BL system ...

 Side 1  free  transition at x/c =  0.5128   61
 Side 2  free  transition at x/c =  0.1435   34

   1   rms: 0.3307E+00   max: 0.1544E+01   D at   35  2   RLX: 0.971
       a =  4.000      CL =  1.6184
      Cm = -0.2586     CD =  0.02259   =>   CDf =  0.00717    CDp =  0.01542

 Side 1  free  transition at x/c =  0.4931   62
 Side 2  free  transition at x/c =  0.1456   33

   2   rms: 0.5690E+00   max: 0.2307E+01   D at   47  2   RLX: 0.650
       a =  4.000      CL =  1.5835
      Cm = -0.2499     CD =  0.02527   =>   CDf =  0.00724    CDp =  0.01803

 Side 1  free  transition at x/c =  0.4945   62
 Side 2  free  transition at x/c =  0.1439   33

   3   rms: 0.1207E+00   max: 0.5663E+00   T at   33  2
       a =  4.000      CL =  1.6429
      Cm = -0.2633     CD =  0.02154   =>   CDf =  0.00670    CDp =  0.01484

 MRCHDU: Convergence failed at  34  side 2    Res =  0.2551E+02
 MRCHDU: Convergence failed at  35  side 2    Res =  0.2753E+02
 MRCHDU: Convergence failed at  36  side 2    Res =  0.1135E+02
 MRCHDU: Convergence failed at  37  side 2    Res =  0.1631E+02
 MRCHDU: Convergence failed at  38  side 2    Res =  0.2085E+02
 MRCHDU: Convergence failed at  39  side 2    Res =  0.2161E+02
 MRCHDU: Convergence failed at  40  side 2    Res =  0.2351E+02
 MRCHDU: Convergence failed at  41  side 2    Res =  0.2433E+02
 MRCHDU: Convergence failed at  42  side 2    Res =  0.2721E+02
 MRCHDU: Convergence failed at  43  side 2    Res =  0.3008E+02
 MRCHDU: Convergence failed at  44  side 2    Res =  0.4484E+02
 MRCHDU: Convergence failed at  45  side 2    Res =  0.6555E+02
 MRCHDU: Convergence failed at  46  side 2    Res =  0.7562E+02
 MRCHDU: Convergence failed at  47  side 2    Res =  0.8018E+02
 MRCHDU: Convergence failed at  48  side 2    Res =  0.8005E+02
 MRCHDU: Convergence failed at  49  side 2    Res =  0.7650E+02
 MRCHDU: Convergence failed at  50  side 2    Res =  0.7771E+02
 MRCHDU: Convergence failed at  51  side 2    Res =  0.6879E+02
 MRCHDU: Convergence failed at  52  side 2    Res =  0.6007E+02
 MRCHDU: Convergence failed at  53  side 2    Res =  0.5257E+02
 MRCHDU: Convergence failed at  54  side 2    Res =  0.4644E+02
 MRCHDU: Convergence failed at  55  side 2    Res =  0.4192E+02
 MRCHDU: Convergence failed at  56  side 2    Res =  0.5165E+02
 MRCHDU: Convergence failed at  57  side 2    Res =  0.6806E+02
 MRCHDU: Convergence failed at  58  side 2    Res =  0.9986E+02
 MRCHDU: Convergence failed at  59  side 2    Res =  0.2306E+03
 MRCHDU: Convergence failed at  60  side 2    Res =  0.2802E+04
 MRCHDU: Convergence failed at  61  side 2    Res =  0.1519E+03
 MRCHDU: Convergence failed at  62  side 2    Res =  0.1026E+03
 MRCHDU: Convergence failed at  63  side 2    Res =  0.6077E+02
 MRCHDU: Convergence failed at  64  side 2    Res =  0.4738E+02
 MRCHDU: Convergence failed at  65  side 2    Res =  0.3795E+02
 MRCHDU: Convergence failed at  66  side 2    Res =  0.3453E+02
 MRCHDU: Convergence failed at  67  side 2    Res =  0.4316E+02
 MRCHDU: Convergence failed at  68  side 2    Res =  0.5611E+02
 MRCHDU: Convergence failed at  69  side 2    Res =  0.1261E+03
 MRCHDU: Convergence failed at  70  side 2    Res =  0.1432E+03
 MRCHDU: Convergence failed at  71  side 2    Res =  0.4338E+03
 MRCHDU: Convergence failed at  72  side 2    Res =  0.4694E+03
 MRCHDU: Convergence failed at  73  side 2    Res =  0.1692E+03
 MRCHDU: Convergence failed at  74  side 2    Res =  0.1167E+03
 MRCHDU: Convergence failed at  75  side 2    Res =  0.1330E+03
 MRCHDU: Convergence failed at  76  side 2    Res =  0.1305E+04
 MRCHDU: Convergence failed at  77  side 2    Res =  0.8900E+01
 Side 1  free  transition at x/c =  0.4945   62
 Side 2  free  transition at x/c =  0.1527   34

   4   rms: 0.1316E+01   max: 0.5476E+01   T at   34  2   RLX: 0.274
       a =  4.000      CL =  1.1854
      Cm = -0.1310     CD =  0.01843   =>   CDf =  0.00595    CDp =  0.01248

 Side 1  free  transition at x/c =  0.4975   61
 Side 2  free  transition at x/c =  0.1467   34

   5   rms: 0.4505E+00   max: 0.5599E+01   T at   34  2   RLX: 0.230
       a =  4.000      CL =  1.2681
      Cm = -0.1749     CD =  0.04847   =>   CDf =  0.00581    CDp =  0.04266

 Side 1  free  transition at x/c =  0.4997   61
 Side 2  free  transition at x/c =  0.1454   34

   6   rms: 0.3362E+00   max: 0.2275E+01   D at   34  2   RLX: 0.515
       a =  4.000      CL =  1.1401
      Cm = -0.1509     CD =  0.04478   =>   CDf =  0.00572    CDp =  0.03906

 Side 1  free  transition at x/c =  0.5028   60
 Side 2  free  transition at x/c =  0.1397   34

   7   rms: 0.7967E+00   max: 0.4741E+01   T at   35  2   RLX: 0.313
       a =  4.000      CL =  1.0981
      Cm = -0.1525     CD =  0.07078   =>   CDf =  0.00518    CDp =  0.06559

 Side 1  free  transition at x/c =  0.5020   60
 Side 2  free  transition at x/c =  0.1382   34

   8   rms: 0.2673E+01   max: -.1139E+02   T at   75  2   RLX: 0.044
       a =  4.000      CL =  1.2553
      Cm = -0.1832     CD =  0.02639   =>   CDf =  0.00567    CDp =  0.02072

 Side 1  free  transition at x/c =  0.4999   60
 Side 2  free  transition at x/c =  0.1389   34

   9   rms: 0.5309E+00   max: -.1915E+01   D at   38  2   RLX: 0.261
       a =  4.000      CL =  1.3356
      Cm = -0.2009     CD =  0.02177   =>   CDf =  0.00592    CDp =  0.01584

 Side 1  free  transition at x/c =  0.4996   61
 Side 2  free  transition at x/c =  0.1413   34

  10   rms: 0.7095E+00   max: -.3040E+01   D at   78  2   RLX: 0.164
       a =  4.000      CL =  1.2817
      Cm = -0.1916     CD =  0.02009   =>   CDf =  0.00732    CDp =  0.01277

 Side 1  free  transition at x/c =  0.5011   60
 Side 2  free  transition at x/c =  0.1390   34

  11   rms: 0.5124E+00   max: -.2684E+01   D at   79  2   RLX: 0.186
       a =  4.000      CL =  1.2703
      Cm = -0.1907     CD =  0.02016   =>   CDf =  0.00679    CDp =  0.01337

 Side 1  free  transition at x/c =  0.5015   60
 Side 2  free  transition at x/c =  0.1373   34

  12   rms: 0.1612E+01   max: -.1093E+02   T at   75  2   RLX: 0.046
       a =  4.000      CL =  1.3035
      Cm = -0.1967     CD =  0.01972   =>   CDf =  0.00661    CDp =  0.01311

 Side 1  free  transition at x/c =  0.5010   60
 Side 2  free  transition at x/c =  0.1384   34

  13   rms: 0.4007E+00   max: -.2071E+01   D at   79  2   RLX: 0.241
       a =  4.000      CL =  1.3151
      Cm = -0.2001     CD =  0.02046   =>   CDf =  0.00674    CDp =  0.01372

 Side 1  free  transition at x/c =  0.5010   60
 Side 2  free  transition at x/c =  0.1375   34

  14   rms: 0.6216E+00   max: -.2367E+01   D at   42  2   RLX: 0.211
       a =  4.000      CL =  1.3843
      Cm = -0.2144     CD =  0.01888   =>   CDf =  0.00639    CDp =  0.01249

 Side 1  free  transition at x/c =  0.5000   61
 Side 2  free  transition at x/c =  0.1417   34

  15   rms: 0.2404E+00   max: -.1569E+01   D at   78  2   RLX: 0.319
       a =  4.000      CL =  1.4629
      Cm = -0.2306     CD =  0.01898   =>   CDf =  0.00709    CDp =  0.01190

 Side 1  free  transition at x/c =  0.4983   61
 Side 2  free  transition at x/c =  0.1443   34

  16   rms: 0.4379E+00   max: 0.2383E+01   T at   74  2   RLX: 0.517
       a =  4.000      CL =  1.5641
      Cm = -0.2489     CD =  0.02125   =>   CDf =  0.00688    CDp =  0.01437

 MRCHDU: Convergence failed at  73  side 2    Res =  0.1282E+01
 Side 1  free  transition at x/c =  0.4958   62
 Side 2  free  transition at x/c =  0.1448   33

  17   rms: 0.1319E+01   max: 0.4806E+01   D at   47  2   RLX: 0.312
       a =  4.000      CL =  1.5230
      Cm = -0.2336     CD =  0.02544   =>   CDf =  0.00714    CDp =  0.01830

 Side 1  free  transition at x/c =  0.4957   62
 Side 2  free  transition at x/c =  0.1466   33

  18   rms: 0.2505E+00   max: 0.1724E+01   T at   33  2   RLX: 0.472
       a =  4.000      CL =  1.6010
      Cm = -0.2516     CD =  0.02033   =>   CDf =  0.00719    CDp =  0.01314

 MRCHDU: Convergence failed at  34  side 2    Res =  0.2483E+02
 MRCHDU: Convergence failed at  35  side 2    Res =  0.8937E+02
 MRCHDU: Convergence failed at  36  side 2    Res =  0.3643E+02
 MRCHDU: Convergence failed at  37  side 2    Res =  0.3916E+02
 MRCHDU: Convergence failed at  38  side 2    Res =  0.8583E+02
 MRCHDU: Convergence failed at  39  side 2    Res =  0.1008E+03
 MRCHDU: Convergence failed at  40  side 2    Res =  0.1202E+03
 MRCHDU: Convergence failed at  41  side 2    Res =  0.4291E+03
 MRCHDU: Convergence failed at  42  side 2    Res =  0.1957E+03
 MRCHDU: Convergence failed at  43  side 2    Res =  0.5856E+03
 MRCHDU: Convergence failed at  44  side 2    Res =  0.5052E+02
 MRCHDU: Convergence failed at  45  side 2    Res =  0.5041E+03
 MRCHDU: Convergence failed at  46  side 2    Res =  0.4793E+02
 MRCHDU: Convergence failed at  47  side 2    Res =  0.1626E+03
 MRCHDU: Convergence failed at  48  side 2    Res =  0.1293E+03
 MRCHDU: Convergence failed at  49  side 2    Res =  0.1353E+03
 MRCHDU: Convergence failed at  50  side 2    Res =  0.1469E+03
 MRCHDU: Convergence failed at  51  side 2    Res =  0.1552E+03
 MRCHDU: Convergence failed at  52  side 2    Res =  0.1595E+03
 MRCHDU: Convergence failed at  53  side 2    Res =  0.1593E+03
 MRCHDU: Convergence failed at  54  side 2    Res =  0.1554E+03
 MRCHDU: Convergence failed at  55  side 2    Res =  0.1496E+03
 MRCHDU: Convergence failed at  56  side 2    Res =  0.3185E+03
 MRCHDU: Convergence failed at  57  side 2    Res =  0.6855E+02
 MRCHDU: Convergence failed at  58  side 2    Res =  0.6461E+02
 MRCHDU: Convergence failed at  59  side 2    Res =  0.6219E+02
 MRCHDU: Convergence failed at  60  side 2    Res =  0.6004E+02
 MRCHDU: Convergence failed at  61  side 2    Res =  0.5848E+02
 MRCHDU: Convergence failed at  62  side 2    Res =  0.9175E+02
 MRCHDU: Convergence failed at  63  side 2    Res =  0.4075E+02
 MRCHDU: Convergence failed at  64  side 2    Res =  0.3771E+02
 MRCHDU: Convergence failed at  65  side 2    Res =  0.1637E+03
 MRCHDU: Convergence failed at  66  side 2    Res =  0.4422E+02
 MRCHDU: Convergence failed at  67  side 2    Res =  0.1096E+03
 MRCHDU: Convergence failed at  68  side 2    Res =  0.3732E+02
 MRCHDU: Convergence failed at  69  side 2    Res =  0.7618E+02
 MRCHDU: Convergence failed at  70  side 2    Res =  0.7622E+02
 MRCHDU: Convergence failed at  71  side 2    Res =  0.5626E+02
 MRCHDU: Convergence failed at  72  side 2    Res =  0.7855E+02
 MRCHDU: Convergence failed at  73  side 2    Res =  0.8518E+02
 MRCHDU: Convergence failed at  74  side 2    Res =  0.1368E+03
 MRCHDU: Convergence failed at  75  side 2    Res =  0.1791E+03
 MRCHDU: Convergence failed at  76  side 2    Res =  0.3013E+03
 MRCHDU: Convergence failed at  77  side 2    Res =  0.1570E+02
 Side 1  free  transition at x/c =  0.4950   62
 Side 2  free  transition at x/c =  0.1502   33

  19   rms: 0.1214E+01   max: 0.6281E+01   T at   33  2   RLX: 0.143
       a =  4.000      CL =  1.1355
      Cm = -0.1133     CD =  0.01770   =>   CDf =  0.00571    CDp =  0.01199

 Side 1  free  transition at x/c =  0.4967   62
 Side 2  free  transition at x/c =  0.1469   33

  20   rms: 0.5369E+00   max: 0.3718E+01   T at   33  2   RLX: 0.403
       a =  4.000      CL =  1.1033
      Cm = -0.1469     CD =  0.04519   =>   CDf =  0.00602    CDp =  0.03917

 Side 1  free  transition at x/c =  0.5038   60
 Side 2  free  transition at x/c =  0.1551   36

  21   rms: 0.7328E+00   max: 0.1078E+02   T at   36  2   RLX: 0.139
       a =  4.000      CL =  0.9569
      Cm = -0.1223     CD =  0.05264   =>   CDf =  0.00543    CDp =  0.04722

 Side 1  free  transition at x/c =  0.5062   59
 Side 2  free  transition at x/c =  0.1431   36

  22   rms: 0.4272E+00   max: 0.4588E+01   T at   36  2   RLX: 0.327
       a =  4.000      CL =  0.8366
      Cm = -0.1053     CD =  0.04750   =>   CDf =  0.00518    CDp =  0.04232

 Side 1  free  transition at x/c =  0.5093   59
 Side 2  free  transition at x/c =  0.1547   37

  23   rms: 0.5010E+00   max: 0.6165E+01   T at   37  2   RLX: 0.243
       a =  4.000      CL =  0.7818
      Cm = -0.1096     CD =  0.04711   =>   CDf =  0.00508    CDp =  0.04204

 Side 1  free  transition at x/c =  0.5106   58
 Side 2  free  transition at x/c =  0.1403   37

  24   rms: 0.1322E+01   max: 0.9979E+01   T at   37  2   RLX: 0.150
       a =  4.000      CL =  0.5104
      Cm = -0.0691     CD =  0.05156   =>   CDf =  0.00489    CDp =  0.04667

 Side 1  free  transition at x/c =  0.5127   57
 Side 2  free  transition at x/c =  0.1353   37

  25   rms: 0.9415E+00   max: -.4268E+01   D at   80  2   RLX: 0.117
       a =  4.000      CL =  0.5939
      Cm = -0.1002     CD =  0.02621   =>   CDf =  0.00492    CDp =  0.02129
 VISCAL:  Convergence failed
 Calculating wake trajectory ...
 Calculating source influence matrix ...

 Solving BL system ...

 Side 1  free  transition at x/c =  0.5128   56
 Side 2  free  transition at x/c =  0.1193   36

   1   rms: 0.1738E+01   max: -.2909E+02   D at    2  2   RLX: 0.017
       a =  5.000      CL =  0.5655
      Cm = -0.0910     CD =  0.03289   =>   CDf =  0.00480    CDp =  0.02809

 Side 1  free  transition at x/c =  0.5125   57
 Side 2  free  transition at x/c =  0.1197   35

   2   rms: 0.5451E+00   max: -.3659E+01   D at    2  1   RLX: 0.137
       a =  5.000      CL =  0.6527
      Cm = -0.1026     CD =  0.03151   =>   CDf =  0.00493    CDp =  0.02658

 Side 1  free  transition at x/c =  0.5093   57
 Side 2  free  transition at x/c =  0.1206   35

   3   rms: 0.6793E+00   max: -.2876E+01   D at   80  2   RLX: 0.174
       a =  5.000      CL =  0.7590
      Cm = -0.1216     CD =  0.02730   =>   CDf =  0.00501    CDp =  0.02229

 Side 1  free  transition at x/c =  0.5056   57
 Side 2  free  transition at x/c =  0.1209   35

   4   rms: 0.2257E+01   max: -.8903E+01   D at   49  2   RLX: 0.056
       a =  5.000      CL =  0.8124
      Cm = -0.1314     CD =  0.02061   =>   CDf =  0.00620    CDp =  0.01441

 Side 1  free  transition at x/c =  0.5045   58
 Side 2  free  transition at x/c =  0.1232   35

   5   rms: 0.1080E+01   max: 0.4205E+01   D at   48  2   RLX: 0.180
       a =  5.000      CL =  0.9691
      Cm = -0.1497     CD =  0.02119   =>   CDf =  0.00717    CDp =  0.01401

 Side 1  free  transition at x/c =  0.5001   59
 Side 2  free  transition at x/c =  0.1278   34

   6   rms: 0.1311E+01   max: 0.4363E+01   D at   37  2   RLX: 0.155
       a =  5.000      CL =  1.0436
      Cm = -0.1535     CD =  0.02806   =>   CDf =  0.00596    CDp =  0.02209

 Side 1  free  transition at x/c =  0.4969   59
 Side 2  free  transition at x/c =  0.1279   34

   7   rms: 0.6728E+00   max: 0.2421E+01   D at   37  2   RLX: 0.620
       a =  5.000      CL =  1.3264
      Cm = -0.1806     CD =  0.03530   =>   CDf =  0.00516    CDp =  0.03014

 MRCHDU: Convergence failed at  43  side 2    Res =  0.3025E+01
 MRCHDU: Convergence failed at  44  side 2    Res =  0.2619E+01
 MRCHDU: Convergence failed at  45  side 2    Res =  0.2174E+01
 MRCHDU: Convergence failed at  46  side 2    Res =  0.2111E+01
 MRCHDU: Convergence failed at  47  side 2    Res =  0.2234E+01
 MRCHDU: Convergence failed at  48  side 2    Res =  0.1750E+01
 MRCHDU: Convergence failed at  49  side 2    Res =  0.2602E+01
 MRCHDU: Convergence failed at  50  side 2    Res =  0.1981E+01
 Side 1  free  transition at x/c =  0.4881   61
 Side 2  free  transition at x/c =  0.1291   31

   8   rms: 0.3932E+00   max: 0.1428E+01   D at   43  2   RLX: 0.386
       a =  5.000      CL =  1.5015
      Cm = -0.2123     CD =  0.02606   =>   CDf =  0.00661    CDp =  0.01944

 Side 1  free  transition at x/c =  0.4832   61
 Side 2  free  transition at x/c =  0.1457   33

   9   rms: 0.3958E+00   max: -.1913E+01   D at   56  2   RLX: 0.261
       a =  5.000      CL =  1.5716
      Cm = -0.2267     CD =  0.01933   =>   CDf =  0.00729    CDp =  0.01204

 MRCHDU: Convergence failed at  50  side 2    Res =  0.4341E+01
 MRCHDU: Convergence failed at  51  side 2    Res =  0.6280E+00
 MRCHDU: Convergence failed at  52  side 2    Res =  0.1750E+01
 MRCHDU: Convergence failed at  53  side 2    Res =  0.9039E+00
 MRCHDU: Convergence failed at  54  side 2    Res =  0.1175E+01
 MRCHDU: Convergence failed at  55  side 2    Res =  0.8286E+00
 Side 1  free  transition at x/c =  0.4811   62
 Side 2  free  transition at x/c =  0.1458   32

  10   rms: 0.2898E+00   max: -.2029E+01   T at    2  1   RLX: 0.246
       a =  5.000      CL =  1.5931
      Cm = -0.2298     CD =  0.01971   =>   CDf =  0.00810    CDp =  0.01161

 Side 1  free  transition at x/c =  0.4797   62
 Side 2  free  transition at x/c =  0.1484   32

  11   rms: 0.2522E+00   max: 0.1222E+01   D at   32  2   RLX: 0.611
       a =  5.000      CL =  1.6947
      Cm = -0.2517     CD =  0.02031   =>   CDf =  0.00789    CDp =  0.01242

 Side 1  free  transition at x/c =  0.4773   62
 Side 2  free  transition at x/c =  0.1580   33

  12   rms: 0.2428E+00   max: 0.1209E+01   D at   33  2
       a =  5.000      CL =  1.7432
      Cm = -0.2618     CD =  0.02196   =>   CDf =  0.00769    CDp =  0.01427

 Side 1  free  transition at x/c =  0.4758   62
 Side 2  free  transition at x/c =  0.1611   33

  13   rms: 0.1678E+01   max: -.7223E+01   D at   40  2   RLX: 0.069
       a =  5.000      CL =  1.7557
      Cm = -0.2649     CD =  0.02128   =>   CDf =  0.00719    CDp =  0.01409

 Side 1  free  transition at x/c =  0.4757   62
 Side 2  free  transition at x/c =  0.1683   34

  14   rms: 0.1617E+00   max: 0.1341E+01   D at   34  2
       a =  5.000      CL =  1.7410
      Cm = -0.2612     CD =  0.02200   =>   CDf =  0.00747    CDp =  0.01453

 Side 1  free  transition at x/c =  0.4759   62
 Side 2  free  transition at x/c =  0.1620   33

  15   rms: 0.2306E+00   max: -.1009E+01   D at   44  2   RLX: 0.495
       a =  5.000      CL =  1.7504
      Cm = -0.2639     CD =  0.02169   =>   CDf =  0.00712    CDp =  0.01457

 Side 1  free  transition at x/c =  0.4757   62
 Side 2  free  transition at x/c =  0.1670   34

  16   rms: 0.1719E+00   max: 0.1147E+01   D at   34  2
       a =  5.000      CL =  1.7387
      Cm = -0.2607     CD =  0.02217   =>   CDf =  0.00748    CDp =  0.01469

 Side 1  free  transition at x/c =  0.4759   62
 Side 2  free  transition at x/c =  0.1615   33

  17   rms: 0.5647E+00   max: -.2421E+01   D at   41  2   RLX: 0.206
       a =  5.000      CL =  1.7503
      Cm = -0.2642     CD =  0.02157   =>   CDf =  0.00712    CDp =  0.01445

 Side 1  free  transition at x/c =  0.4757   62
 Side 2  free  transition at x/c =  0.1683   34

  18   rms: 0.1730E+00   max: 0.1325E+01   D at   34  2
       a =  5.000      CL =  1.7411
      Cm = -0.2612     CD =  0.02201   =>   CDf =  0.00751    CDp =  0.01451

 Side 1  free  transition at x/c =  0.4759   62
 Side 2  free  transition at x/c =  0.1621   33

  19   rms: 0.2122E+00   max: -.9359E+00   D at   44  2   RLX: 0.534
       a =  5.000      CL =  1.7502
      Cm = -0.2638     CD =  0.02171   =>   CDf =  0.00712    CDp =  0.01458

 Side 1  free  transition at x/c =  0.4757   62
 Side 2  free  transition at x/c =  0.1667   34

  20   rms: 0.1694E+00   max: 0.1105E+01   D at   34  2
       a =  5.000      CL =  1.7384
      Cm = -0.2606     CD =  0.02219   =>   CDf =  0.00748    CDp =  0.01471

 Side 1  free  transition at x/c =  0.4759   62
 Side 2  free  transition at x/c =  0.1614   33

  21   rms: 0.7774E+00   max: -.3326E+01   D at   41  2   RLX: 0.150
       a =  5.000      CL =  1.7502
      Cm = -0.2642     CD =  0.02154   =>   CDf =  0.00713    CDp =  0.01442

 Side 1  free  transition at x/c =  0.4757   62
 Side 2  free  transition at x/c =  0.1685   34

  22   rms: 0.1746E+00   max: 0.1355E+01   D at   34  2
       a =  5.000      CL =  1.7414
      Cm = -0.2613     CD =  0.02200   =>   CDf =  0.00751    CDp =  0.01448

 Side 1  free  transition at x/c =  0.4759   62
 Side 2  free  transition at x/c =  0.1622   33

  23   rms: 0.2012E+00   max: -.8906E+00   D at   44  2   RLX: 0.561
       a =  5.000      CL =  1.7503
      Cm = -0.2638     CD =  0.02172   =>   CDf =  0.00712    CDp =  0.01460

 Side 1  free  transition at x/c =  0.4757   62
 Side 2  free  transition at x/c =  0.1666   34

  24   rms: 0.1678E+00   max: 0.1076E+01   D at   34  2
       a =  5.000      CL =  1.7382
      Cm = -0.2606     CD =  0.02220   =>   CDf =  0.00748    CDp =  0.01472

 Side 1  free  transition at x/c =  0.4759   62
 Side 2  free  transition at x/c =  0.1613   33

  25   rms: 0.1054E+01   max: -.4515E+01   T at   33  2   RLX: 0.111
       a =  5.000      CL =  1.7501
      Cm = -0.2642     CD =  0.02152   =>   CDf =  0.00713    CDp =  0.01439
 VISCAL:  Convergence failed

 Sequence halted since previous  4 points did not converge
 Last-converged  alpha =   0.000    CL =   0.00000

.OPERva   c>  
 XFOIL   c>  
0.1
resp: 
 ===================================================
  XFOIL Version 6.97
  Copyright (C) 2000   Mark Drela, Harold Youngren

  This software comes with ABSOLUTELY NO WARRANTY,
    subject to the GNU General Public License.

  Caveat computor
 ===================================================

 File  xfoil.def  not found

   QUIT    Exit program

  .OPER    Direct operating point(s)
  .MDES    Complex mapping design routine
  .QDES    Surface speed design routine
  .GDES    Geometry design routine

   SAVE f  Write airfoil to labeled coordinate file
   PSAV f  Write airfoil to plain coordinate file
   ISAV f  Write airfoil to ISES coordinate file
   MSAV f  Write airfoil to MSES coordinate file
   REVE    Reverse written-airfoil node ordering
   DELI i  Change written-airfoil file delimiters

   LOAD f  Read buffer airfoil from coordinate file
   NACA i  Set NACA 4,5-digit airfoil and buffer airfoil
   INTE    Set buffer airfoil by interpolating two airfoils
   NORM    Buffer airfoil normalization toggle
   HALF    Halve the number of points in buffer airfoil
   XYCM rr Change CM reference location, currently  0.25000 0.00000

   BEND    Display structural properties of current airfoil

   PCOP    Set current-airfoil panel nodes directly from buffer airfoil points
   PANE    Set current-airfoil panel nodes ( 160 ) based on curvature
  .PPAR    Show/change paneling

  .PLOP    Plotting options

   WDEF f  Write  current-settings file
   RDEF f  Reread current-settings file
   NAME s  Specify new airfoil name
   NINC    Increment name version number

   Z       Zoom    | (available in all menus)
   U       Unzoom  | 

 XFOIL   c>   ...............................................

  G raphics-enable flag:        T
  S ize of plot object          10.00"
  A spect ratio of plot object   0.5500
  P age dimensions              11.00 x  8.50"
  M argins from page edges       0.00",  0.00"
  F ont size (relative)          0.0150
  W indow/screen size fraction   0.8000
  B lowup input method:        Cursor    
  O rientation of plot:        Landscape 
  C olor PostScript output?     F

      Option, Value   (or <Return>)    c>   ...............................................

  G raphics-enable flag:        F
  S ize of plot object          10.00"
  A spect ratio of plot object   0.5500
  P age dimensions              11.00 x  8.50"
  M argins from page edges       0.00",  0.00"
  F ont size (relative)          0.0150
  W indow/screen size fraction   0.8000
  B lowup input method:        Cursor    
  O rientation of plot:        Landscape 
  C olor PostScript output?     F

      Option, Value   (or <Return>)    c>  
 XFOIL   c>  
 Labeled airfoil file.  Name:  000268                                          

 Number of input coordinate points: 200
 Clockwise ordering
 Max thickness =     0.169357  at x =   0.136
 Max camber    =     0.121344  at x =   0.453

  LE  x,y  =  -0.00000   0.00025  |   Chord =   0.99988
  TE  x,y  =   0.99988   0.00006  |

 Current airfoil nodes set from buffer airfoil nodes ( 200 )

 XFOIL   c>  
 You are working with the buffer airfoil

.GDES   c>  
  i       x        y      angle
   2   0.9990   0.0005    0.075
   3   0.9978   0.0011    0.058
   4   0.9961   0.0020    0.106
   5   0.9938   0.0031    0.085
   6   0.9911   0.0044    0.153
   7   0.9880   0.0060    0.140
   8   0.9843   0.0077    0.180
   9   0.9801   0.0097    0.180
  10   0.9755   0.0119    0.217
  11   0.9704   0.0144    0.220
  12   0.9649   0.0170    0.239
  13   0.9589   0.0198    0.256
  14   0.9524   0.0227    0.272
  15   0.9455   0.0259    0.279
  16   0.9382   0.0291    0.297
  17   0.9304   0.0326    0.302
  18   0.9222   0.0362    0.322
  19   0.9135   0.0398    0.321
  20   0.9045   0.0437    0.330
  21   0.8951   0.0476    0.341
  22   0.8853   0.0516    0.348
  23   0.8751   0.0557    0.355
  24   0.8645   0.0598    0.356
  25   0.8536   0.0641    0.357
  26   0.8423   0.0683    0.374
  27   0.8307   0.0727    0.364
  28   0.8187   0.0770    0.379
  29   0.8065   0.0814    0.382
  30   0.7939   0.0858    0.380
  31   0.7810   0.0902    0.396
  32   0.7679   0.0946    0.393
  33   0.7545   0.0990    0.405
  34   0.7409   0.1033    0.409
  35   0.7270   0.1076    0.421
  36   0.7129   0.1119    0.430
  37   0.6986   0.1161    0.444
  38   0.6841   0.1203    0.451
  39   0.6694   0.1244    0.469
  40   0.6545   0.1284    0.484
  41   0.6395   0.1323    0.505
  42   0.6243   0.1361    0.519
  43   0.6091   0.1398    0.540
  44   0.5937   0.1434    0.569
  45   0.5782   0.1468    0.587
  46   0.5627   0.1501    0.617
  47   0.5471   0.1532    0.642
  48   0.5314   0.1561    0.675
  49   0.5157   0.1589    0.701
  50   0.5000   0.1614    0.737
  51   0.4843   0.1638    0.772
  52   0.4686   0.1659    0.802
  53   0.4529   0.1678    0.838
  54   0.4373   0.1695    0.880
  55   0.4218   0.1709    0.908
  56   0.4063   0.1720    0.953
  57   0.3909   0.1729    0.987
  58   0.3757   0.1736    1.024
  59   0.3605   0.1739    1.064
  60   0.3455   0.1740    1.096
  61   0.3306   0.1738    1.136
  62   0.3159   0.1733    1.167
  63   0.3014   0.1725    1.206
  64   0.2871   0.1714    1.234
  65   0.2730   0.1700    1.267
  66   0.2591   0.1684    1.302
  67   0.2455   0.1664    1.329
  68   0.2321   0.1642    1.357
  69   0.2190   0.1617    1.387
  70   0.2061   0.1589    1.416
  71   0.1935   0.1559    1.445
  72   0.1813   0.1526    1.468
  73   0.1693   0.1490    1.501
  74   0.1577   0.1452    1.536
  75   0.1464   0.1412    1.561
  76   0.1355   0.1370    1.594
  77   0.1249   0.1326    1.640
  78   0.1147   0.1280    1.681
  79   0.1049   0.1232    1.730
  80   0.0955   0.1182    1.781
  81   0.0865   0.1131    1.852
  82   0.0778   0.1078    1.915
  83   0.0696   0.1024    2.005
  84   0.0618   0.0969    2.088
  85   0.0545   0.0913    2.201
  86   0.0476   0.0856    2.326
  87   0.0411   0.0798    2.449
  88   0.0351   0.0739    2.598
  89   0.0296   0.0679    2.767
  90   0.0245   0.0619    2.940
  91   0.0199   0.0558    3.136
  92   0.0157   0.0497    3.347
  93   0.0120   0.0436    3.528
  94   0.0089   0.0374    3.766
  95   0.0062   0.0312    3.947
  96   0.0039   0.0250    4.130
  97   0.0022   0.0188    4.299
  98   0.0010   0.0125    4.407
  99   0.0002   0.0063    4.486
 100   0.0000   0.0000    4.859
 101   0.0002  -0.0054    5.228
 102   0.0010  -0.0108    5.340
 103   0.0022  -0.0161    5.530
 104   0.0039  -0.0212    5.762
 105   0.0062  -0.0260    6.027
 106   0.0089  -0.0306    6.318
 107   0.0120  -0.0349    6.548
 108   0.0157  -0.0388    6.728
 109   0.0199  -0.0422    6.775
 110   0.0245  -0.0453    6.677
 111   0.0296  -0.0478    6.455
 112   0.0351  -0.0498    6.071
 113   0.0411  -0.0513    5.621
 114   0.0476  -0.0523    5.097
 115   0.0545  -0.0526    4.547
 116   0.0618  -0.0525    4.019
 117   0.0696  -0.0517    3.500
 118   0.0778  -0.0505    3.041
 119   0.0865  -0.0487    2.598
 120   0.0955  -0.0463    2.211
 121   0.1049  -0.0435    1.858
 122   0.1147  -0.0402    1.538
 123   0.1249  -0.0365    1.253
 124   0.1355  -0.0323    0.992
 125   0.1464  -0.0278    0.761
 126   0.1577  -0.0230    0.538
 127   0.1693  -0.0179    0.351
 128   0.1813  -0.0126    0.165
 129   0.1935  -0.0071   -0.007
 130   0.2061  -0.0015   -0.160
 131   0.2190   0.0042   -0.306
 132   0.2321   0.0100   -0.437
 133   0.2455   0.0157   -0.567
 134   0.2591   0.0214   -0.683
 135   0.2730   0.0270   -0.787
 136   0.2871   0.0325   -0.892
 137   0.3014   0.0378   -0.984
 138   0.3159   0.0429   -1.057
 139   0.3306   0.0477   -1.132
 140   0.3455   0.0523   -1.194
 141   0.3605   0.0566   -1.251
 142   0.3757   0.0606   -1.288
 143   0.3909   0.0642   -1.321
 144   0.4063   0.0675   -1.344
 145   0.4218   0.0704   -1.352
 146   0.4373   0.0730   -1.357
 147   0.4529   0.0752   -1.351
 148   0.4686   0.0771   -1.331
 149   0.4843   0.0785   -1.306
 150   0.5000   0.0796   -1.276
 151   0.5157   0.0804   -1.237
 152   0.5314   0.0808   -1.193
 153   0.5471   0.0809   -1.140
 154   0.5627   0.0807   -1.093
 155   0.5782   0.0802   -1.033
 156   0.5937   0.0794   -0.983
 157   0.6091   0.0783   -0.915
 158   0.6243   0.0770   -0.864
 159   0.6395   0.0755   -0.807
 160   0.6545   0.0738   -0.742
 161   0.6694   0.0719   -0.691
 162   0.6841   0.0699   -0.635
 163   0.6986   0.0677   -0.584
 164   0.7129   0.0654   -0.534
 165   0.7270   0.0630   -0.489
 166   0.7409   0.0605   -0.446
 167   0.7545   0.0579   -0.406
 168   0.7679   0.0553   -0.366
 169   0.7810   0.0527   -0.330
 170   0.7939   0.0500   -0.302
 171   0.8065   0.0473   -0.270
 172   0.8187   0.0447   -0.249
 173   0.8307   0.0420   -0.223
 174   0.8423   0.0394   -0.202
 175   0.8536   0.0368   -0.185
 176   0.8645   0.0342   -0.169
 177   0.8751   0.0317   -0.159
 178   0.8853   0.0293   -0.138
 179   0.8951   0.0269   -0.136
 180   0.9045   0.0246   -0.122
 181   0.9135   0.0224   -0.118
 182   0.9222   0.0202   -0.105
 183   0.9304   0.0182   -0.109
 184   0.9382   0.0162   -0.098
 185   0.9455   0.0143   -0.085
 186   0.9524   0.0125   -0.091
 187   0.9589   0.0109   -0.078
 188   0.9649   0.0093   -0.079
 189   0.9704   0.0079   -0.076
 190   0.9755   0.0065   -0.060
 191   0.9801   0.0053   -0.065
 192   0.9843   0.0042   -0.071
 193   0.9880   0.0032   -0.030
 194   0.9911   0.0024   -0.053
 195   0.9938   0.0017   -0.010
 196   0.9961   0.0011   -0.063
 197   0.9978   0.0006   -0.018
 198   0.9990   0.0003    0.030
 199   0.9998   0.0001   -0.124

 Maximum panel corner angle =  6.775   at  i,x,y  = 109   0.0199  -0.0422

 Enter corner angle criterion for refinement (deg):   3.388
 Enter type of spline parameter (1=uniform, 2=arclength):   1
 Enter refinement x limits:  -0.10000   1.10000
 Number of points added:           50
 Max thickness =     0.169340  at x =   0.136
 Max camber    =     0.121479  at x =   0.453

 Maximum panel corner angle =  3.136   at  i,x,y  =  91   0.0199   0.0558

.GDES   c>  
 Buffer airfoil is not identical to current airfoil

 XFOIL   c>  
 Blunt trailing edge.  Gap =  0.00028

 Paneling parameters used...
   Number of panel nodes       160
   Panel bunching parameter    1.000
   TE/LE panel density ratio   0.150
   Refined-area/LE panel density ratio    0.200
   Top    side refined area x/c limits  1.000 1.000
   Bottom side refined area x/c limits  1.000 1.000

 XFOIL   c>  
.OPERi   c>   Current iteration limit:          20

Enter new iteration limit   i>  
Enter new iteration limit   i>  
Enter new iteration limit   i>  
.OPERi   c>  
 M  =    0.0000
 Re =  0.3000E+06

.OPERv   c>  
 Sonic Cp =    -66.86      Sonic Q/Qinf =     9.138


.OPERv   c>  
 Polar  1 newly created for accumulation
 Airfoil archived with polar: 000268                                          

Enter  polar save filename  OR  <return> for no file   s>  
 New polar save file available

Enter  polar dump filename  OR  <return> for no file   s>  
 Polar dump file will NOT be written

 Polar accumulation enabled

.OPERva   c>   Calculating unit vorticity distributions ...
 Calculating wake trajectory ...
 Calculating source influence matrix ...

 Solving BL system ...

 Initializing BL ...
    side            1  ...
 MRCHUE: Inverse mode at  55     Hk =   4.412
 MRCHUE: Inverse mode at  56     Hk =   5.319
 MRCHUE: Inverse mode at  57     Hk =   6.217
 MRCHUE: Inverse mode at  58     Hk =   7.114
 MRCHUE: Inverse mode at  59     Hk =   8.012
 MRCHUE: Inverse mode at  60     Hk =   8.915
 MRCHUE: Inverse mode at  61     Hk =   5.924
 MRCHUE: Inverse mode at  62     Hk =   3.154
 MRCHUE: Inverse mode at  83     Hk =   2.500
 MRCHUE: Convergence failed at  84  side 1    Res =  0.5193E+01
    side            2  ...
 MRCHUE: Inverse mode at  25     Hk =   3.800
 MRCHUE: Inverse mode at  26     Hk =   4.390
 MRCHUE: Inverse mode at  27     Hk =   4.976
 MRCHUE: Inverse mode at  28     Hk =   5.565
 MRCHUE: Inverse mode at  29     Hk =   6.166
 MRCHUE: Inverse mode at  30     Hk =   6.786
 MRCHUE: Inverse mode at  31     Hk =   7.434
 MRCHUE: Inverse mode at  32     Hk =   8.118
 MRCHUE: Inverse mode at  33     Hk =   8.846
 MRCHUE: Inverse mode at  34     Hk =   9.629
 MRCHUE: Inverse mode at  35     Hk =   7.871
 MRCHUE: Inverse mode at  36     Hk =   4.636
 MRCHUE: Inverse mode at  37     Hk =   2.683
 MRCHUE: Inverse mode at  38     Hk =   2.500
 MRCHUE: Inverse mode at  39     Hk =   2.500
 MRCHUE: Inverse mode at  40     Hk =   2.500
 MRCHUE: Inverse mode at  41     Hk =   2.500
 MRCHUE: Inverse mode at  42     Hk =   2.500
 MRCHUE: Inverse mode at  43     Hk =   2.500
 MRCHUE: Inverse mode at  44     Hk =   2.500
 MRCHUE: Inverse mode at  45     Hk =   2.500
 MRCHUE: Inverse mode at  46     Hk =   2.500
 MRCHUE: Inverse mode at  47     Hk =   2.500
 MRCHUE: Inverse mode at  48     Hk =   2.500
 MRCHUE: Inverse mode at  49     Hk =   2.500
 MRCHUE: Inverse mode at  50     Hk =   2.500
 MRCHUE: Inverse mode at  51     Hk =   2.500
 MRCHUE: Inverse mode at  52     Hk =   2.500
 MRCHUE: Inverse mode at  53     Hk =   2.500
 MRCHUE: Inverse mode at  54     Hk =   2.500
 MRCHUE: Inverse mode at  55     Hk =   2.500
 MRCHUE: Inverse mode at  56     Hk =   2.500
 MRCHUE: Inverse mode at  57     Hk =   2.500
 MRCHUE: Inverse mode at  58     Hk =   2.500
 MRCHUE: Inverse mode at  59     Hk =   2.500
 MRCHUE: Inverse mode at  60     Hk =   2.500
 MRCHUE: Inverse mode at  61     Hk =   2.500

 MRCHDU: Convergence failed at  84  side 1    Res =  0.5202E+01
 Side 1  free  transition at x/c =  0.4987   61
 Side 2  free  transition at x/c =  0.1570   35

   1   rms: 0.6971E+00   max: 0.5478E+01   T at   35  2   RLX: 0.274
       a =  2.000      CL =  1.5236
      Cm = -0.2920     CD =  0.01346   =>   CDf =  0.00784    CDp =  0.00562

 MRCHDU: Convergence failed at  36  side 2    Res =  0.2581E+02
 MRCHDU: Convergence failed at  37  side 2    Res =  0.1611E+02
 MRCHDU: Convergence failed at  38  side 2    Res =  0.2695E+02
 MRCHDU: Convergence failed at  39  side 2    Res =  0.2178E+02
 MRCHDU: Convergence failed at  40  side 2    Res =  0.5185E+02
 MRCHDU: Convergence failed at  41  side 2    Res =  0.3795E+03
 MRCHDU: Convergence failed at  42  side 2    Res =  0.1954E+03
 MRCHDU: Convergence failed at  43  side 2    Res =  0.1302E+04
 MRCHDU: Convergence failed at  44  side 2    Res =  0.4995E+02
 MRCHDU: Convergence failed at  45  side 2    Res =  0.4299E+02
 MRCHDU: Convergence failed at  46  side 2    Res =  0.3909E+02
 MRCHDU: Convergence failed at  47  side 2    Res =  0.3690E+02
 MRCHDU: Convergence failed at  48  side 2    Res =  0.3575E+02
 MRCHDU: Convergence failed at  49  side 2    Res =  0.3533E+02
 MRCHDU: Convergence failed at  50  side 2    Res =  0.3546E+02
 MRCHDU: Convergence failed at  51  side 2    Res =  0.3607E+02
 MRCHDU: Convergence failed at  52  side 2    Res =  0.3716E+02
 MRCHDU: Convergence failed at  53  side 2    Res =  0.2317E+03
 MRCHDU: Convergence failed at  54  side 2    Res =  0.2498E+03
 MRCHDU: Convergence failed at  55  side 2    Res =  0.4596E+03
 MRCHDU: Convergence failed at  56  side 2    Res =  0.2078E+03
 MRCHDU: Convergence failed at  57  side 2    Res =  0.6605E+02
 MRCHDU: Convergence failed at  58  side 2    Res =  0.7381E+02
 MRCHDU: Convergence failed at  59  side 2    Res =  0.8440E+02
 MRCHDU: Convergence failed at  60  side 2    Res =  0.9055E+02
 MRCHDU: Convergence failed at  61  side 2    Res =  0.5604E+03
 MRCHDU: Convergence failed at  62  side 2    Res =  0.6861E+03
 MRCHDU: Convergence failed at  63  side 2    Res =  0.1198E+03
 MRCHDU: Convergence failed at  64  side 2    Res =  0.3264E+02
 MRCHDU: Convergence failed at  65  side 2    Res =  0.6320E+02
 MRCHDU: Convergence failed at  66  side 2    Res =  0.7722E+03
 MRCHDU: Convergence failed at  67  side 2    Res =  0.3160E+04
 MRCHDU: Convergence failed at  68  side 2    Res =  0.9571E+02
 MRCHDU: Convergence failed at  69  side 2    Res =  0.4854E+02
 MRCHDU: Convergence failed at  70  side 2    Res =  0.3131E+02
 MRCHDU: Convergence failed at  71  side 2    Res =  0.3766E+03
 MRCHDU: Convergence failed at  72  side 2    Res =  0.3953E+02
 MRCHDU: Convergence failed at  73  side 2    Res =  0.7150E+02
 MRCHDU: Convergence failed at  74  side 2    Res =  0.4425E+02
 MRCHDU: Convergence failed at  75  side 2    Res =  0.1309E+03
 MRCHDU: Convergence failed at  76  side 2    Res =  0.4838E+02
 MRCHDU: Convergence failed at  77  side 2    Res =  0.4113E+02
 MRCHDU: Convergence failed at  78  side 2    Res =  0.2979E+02
 MRCHDU: Convergence failed at  79  side 2    Res =  0.2946E+04
 MRCHDU: Convergence failed at  81  side 2    Res =  0.2196E-01
 Side 1  free  transition at x/c =  0.5054   60
 Side 2  free  transition at x/c =  0.1415   35

   2   rms: 0.8289E+00   max: 0.8182E+01   T at   35  2   RLX: 0.183
       a =  2.000      CL =  0.9755
      Cm = -0.1166     CD =  0.00937   =>   CDf =  0.00644    CDp =  0.00293

 MRCHDU: Convergence failed at  35  side 2    Res =  0.1374E+02
 MRCHDU: Convergence failed at  81  side 2    Res =  0.2770E+00
 MRCHDU: Convergence failed at  82  side 2    Res =  0.5415E+00
 MRCHDU: Convergence failed at  83  side 2    Res =  0.6821E+00
 MRCHDU: Convergence failed at  84  side 2    Res =  0.7886E+00
 MRCHDU: Convergence failed at  85  side 2    Res =  0.8720E+00
 MRCHDU: Convergence failed at  86  side 2    Res =  0.9383E+00
 MRCHDU: Convergence failed at  87  side 2    Res =  0.9920E+00
 MRCHDU: Convergence failed at  88  side 2    Res =  0.1036E+01
 MRCHDU: Convergence failed at  89  side 2    Res =  0.1071E+01
 MRCHDU: Convergence failed at  90  side 2    Res =  0.1099E+01
 MRCHDU: Convergence failed at  91  side 2    Res =  0.1121E+01
 MRCHDU: Convergence failed at  92  side 2    Res =  0.1136E+01
 MRCHDU: Convergence failed at  93  side 2    Res =  0.1145E+01
 MRCHDU: Convergence failed at  94  side 2    Res =  0.1148E+01
 MRCHDU: Convergence failed at  95  side 2    Res =  0.1144E+01
 MRCHDU: Convergence failed at  96  side 2    Res =  0.1135E+01
 MRCHDU: Convergence failed at  97  side 2    Res =  0.1119E+01
 MRCHDU: Convergence failed at  98  side 2    Res =  0.1097E+01
 MRCHDU: Convergence failed at  99  side 2    Res =  0.1067E+01
 MRCHDU: Convergence failed at 100  side 2    Res =  0.1031E+01
 MRCHDU: Convergence failed at 101  side 2    Res =  0.9877E+00
 Side 1  free  transition at x/c =  0.5103   60
 Side 2  free  transition at x/c =  0.1346   34

   3   rms: 0.6061E+00   max: 0.8041E+01   T at   34  2   RLX: 0.187
       a =  2.000      CL =  1.0933
      Cm = -0.1748     CD =  0.02543   =>   CDf =  0.00652    CDp =  0.01891

 Side 1  free  transition at x/c =  0.5160   60
 Side 2  free  transition at x/c =  0.1314   35

   4   rms: 0.1571E+02   max: -.1382E+03   T at   35  2   RLX: 0.004
       a =  2.000      CL =  1.1239
      Cm = -0.1746     CD =  0.05323   =>   CDf =  0.00609    CDp =  0.04714

 Side 1  free  transition at x/c =  0.5149   61
 Side 2  free  transition at x/c =  0.1378   34

   5   rms: 0.6096E+00   max: -.4777E+01   T at   34  2   RLX: 0.105
       a =  2.000      CL =  1.0721
      Cm = -0.1671     CD =  0.05247   =>   CDf =  0.00634    CDp =  0.04613

 Side 1  free  transition at x/c =  0.5194   60
 Side 2  free  transition at x/c =  0.4221   52

   6   rms: 0.7310E+01   max: -.4399E+02   T at   53  2   RLX: 0.011
       a =  2.000      CL =  1.0434
      Cm = -0.1546     CD =  0.04479   =>   CDf =  0.00572    CDp =  0.03906

 Side 1  free  transition at x/c =  0.5179   61
 Side 2  free  transition at x/c =  0.2084   40

   7   rms: 0.1938E+01   max: 0.2261E+02   T at   40  2   RLX: 0.066
       a =  2.000      CL =  0.9945
      Cm = -0.1495     CD =  0.06050   =>   CDf =  0.00616    CDp =  0.05435

 Side 1  free  transition at x/c =  0.5219   60
 Side 2  free  transition at x/c =  0.2075   40

   8   rms: 0.3310E+01   max: 0.2159E+02   T at   41  2   RLX: 0.069
       a =  2.000      CL =  0.8753
      Cm = -0.1460     CD =  0.06534   =>   CDf =  0.00604    CDp =  0.05930

 Side 1  free  transition at x/c =  0.5271   59
 Side 2  free  transition at x/c =  0.1759   39

   9   rms: 0.2011E+01   max: 0.1765E+02   T at   41  2   RLX: 0.085
       a =  2.000      CL =  0.6891
      Cm = -0.1194     CD =  0.05335   =>   CDf =  0.00593    CDp =  0.04741

 Side 1  free  transition at x/c =  0.5324   58
 Side 2  free  transition at x/c =  0.1282   36

  10   rms: 0.2430E+01   max: -.3680E+02   T at   36  2   RLX: 0.014
       a =  2.000      CL =  0.6428
      Cm = -0.1069     CD =  0.04393   =>   CDf =  0.00582    CDp =  0.03812

 Side 1  free  transition at x/c =  0.5327   58
 Side 2  free  transition at x/c =  0.1236   36

  11   rms: 0.5877E+00   max: -.7488E+01   T at   36  2   RLX: 0.067
       a =  2.000      CL =  0.6347
      Cm = -0.1047     CD =  0.04478   =>   CDf =  0.00582    CDp =  0.03896

 Side 1  free  transition at x/c =  0.5337   58
 Side 2  free  transition at x/c =  0.1237   36

  12   rms: 0.4026E+00   max: 0.1901E+01   D at   43  2   RLX: 0.321
       a =  2.000      CL =  0.6006
      Cm = -0.0979     CD =  0.04903   =>   CDf =  0.00575    CDp =  0.04327

 Side 1  free  transition at x/c =  0.5401   59
 Side 2  free  transition at x/c =  0.1183   35

  13   rms: 0.2907E+00   max: 0.1837E+01   T at   35  2   RLX: 0.382
       a =  2.000      CL =  0.6796
      Cm = -0.1105     CD =  0.04578   =>   CDf =  0.00540    CDp =  0.04038

 Side 1  free  transition at x/c =  0.5426   59
 Side 2  free  transition at x/c =  0.1125   34

  14   rms: 0.2430E+00   max: -.1096E+01   D at   99  2   RLX: 0.456
       a =  2.000      CL =  0.7683
      Cm = -0.1209     CD =  0.04694   =>   CDf =  0.00517    CDp =  0.04177

 Side 1  free  transition at x/c =  0.5424   59
 Side 2  free  transition at x/c =  0.1105   34

[...]
 Side 2  free  transition at x/c =  0.1965   34

   7   rms: 0.4671E-01   max: -.5817E+00   T at   34  2   RLX: 0.860
       a =  7.000      CL =  1.8248
      Cm = -0.2338     CD =  0.02833   =>   CDf =  0.00633    CDp =  0.02200

 Side 1  free  transition at x/c =  0.4397   62
 Side 2  free  transition at x/c =  0.1934   34

   8   rms: 0.1382E+00   max: -.1743E+01   T at   34  2   RLX: 0.287
       a =  7.000      CL =  1.8142
      Cm = -0.2317     CD =  0.02953   =>   CDf =  0.00624    CDp =  0.02329

 Side 1  free  transition at x/c =  0.4398   62
 Side 2  free  transition at x/c =  0.1916   34

   9   rms: 0.1388E+00   max: -.8298E+00   D at   34  2   RLX: 0.603
       a =  7.000      CL =  1.8159
      Cm = -0.2316     CD =  0.03059   =>   CDf =  0.00606    CDp =  0.02452

 Side 1  free  transition at x/c =  0.4397   62
 Side 2  free  transition at x/c =  0.1919   34

  10   rms: 0.1177E+00   max: -.7352E+00   D at   34  2   RLX: 0.680
       a =  7.000      CL =  1.8278
      Cm = -0.2341     CD =  0.02917   =>   CDf =  0.00618    CDp =  0.02299

 Side 1  free  transition at x/c =  0.4396   62
 Side 2  free  transition at x/c =  0.1906   33

  11   rms: 0.1392E+00   max: -.7247E+00   D at   34  2   RLX: 0.690
       a =  7.000      CL =  1.8383
      Cm = -0.2362     CD =  0.02901   =>   CDf =  0.00622    CDp =  0.02279

 Side 1  free  transition at x/c =  0.4394   62
 Side 2  free  transition at x/c =  0.1759   32

  12   rms: 0.1604E+00   max: -.1051E+01   T at   33  2   RLX: 0.476
       a =  7.000      CL =  1.8305
      Cm = -0.2349     CD =  0.02920   =>   CDf =  0.00627    CDp =  0.02293

 Side 1  free  transition at x/c =  0.4395   62
 Side 2  free  transition at x/c =  0.1759   32

  13   rms: 0.1467E+00   max: -.8148E+00   T at   33  2   RLX: 0.614
       a =  7.000      CL =  1.8262
      Cm = -0.2341     CD =  0.02904   =>   CDf =  0.00618    CDp =  0.02286

 Side 1  free  transition at x/c =  0.4395   62
 Side 2  free  transition at x/c =  0.1752   32

  14   rms: 0.1298E+00   max: -.7518E+00   D at   33  2   RLX: 0.665
       a =  7.000      CL =  1.8294
      Cm = -0.2347     CD =  0.02876   =>   CDf =  0.00618    CDp =  0.02258

 Side 1  free  transition at x/c =  0.4395   62
 Side 2  free  transition at x/c =  0.1735   32

  15   rms: 0.1287E+00   max: -.7285E+00   D at   33  2   RLX: 0.686
       a =  7.000      CL =  1.8454
      Cm = -0.2379     CD =  0.02819   =>   CDf =  0.00623    CDp =  0.02196

 Side 1  free  transition at x/c =  0.4393   62
 Side 2  free  transition at x/c =  0.1720   32

  16   rms: 0.1370E+00   max: -.6419E+00   D at   33  2   RLX: 0.779
       a =  7.000      CL =  1.8704
      Cm = -0.2428     CD =  0.02687   =>   CDf =  0.00642    CDp =  0.02045

 Side 1  free  transition at x/c =  0.4389   62
 Side 2  free  transition at x/c =  0.1752   32

  17   rms: 0.9883E-01   max: -.7463E+00   T at   33  2   RLX: 0.670
       a =  7.000      CL =  1.8604
      Cm = -0.2410     CD =  0.02713   =>   CDf =  0.00666    CDp =  0.02047

 Side 1  free  transition at x/c =  0.4391   62
 Side 2  free  transition at x/c =  0.1727   32

  18   rms: 0.1528E+00   max: -.6472E+00   D at   57  2   RLX: 0.773
       a =  7.000      CL =  1.8774
      Cm = -0.2444     CD =  0.02676   =>   CDf =  0.00646    CDp =  0.02031

 Side 1  free  transition at x/c =  0.4388   62
 Side 2  free  transition at x/c =  0.1759   32

  19   rms: 0.8786E-01   max: -.6136E+00   T at   33  2   RLX: 0.815
       a =  7.000      CL =  1.8679
      Cm = -0.2425     CD =  0.02673   =>   CDf =  0.00673    CDp =  0.02000

 Side 1  free  transition at x/c =  0.4390   62
 Side 2  free  transition at x/c =  0.1734   32

  20   rms: 0.2438E+00   max: -.9581E+00   D at   56  2   RLX: 0.522
       a =  7.000      CL =  1.8901
      Cm = -0.2469     CD =  0.02654   =>   CDf =  0.00655    CDp =  0.01999

 Side 1  free  transition at x/c =  0.4386   62
 Side 2  free  transition at x/c =  0.1820   33

  21   rms: 0.4024E-01   max: -.3776E+00   D at   38  2
       a =  7.000      CL =  1.8995
      Cm = -0.2488     CD =  0.02523   =>   CDf =  0.00721    CDp =  0.01802

 Side 1  free  transition at x/c =  0.4386   62
 Side 2  free  transition at x/c =  0.1841   33

  22   rms: 0.1822E-01   max: 0.1352E+00   D at   39  2
       a =  7.000      CL =  1.8991
      Cm = -0.2488     CD =  0.02525   =>   CDf =  0.00723    CDp =  0.01802

 Side 1  free  transition at x/c =  0.4386   62
 Side 2  free  transition at x/c =  0.1834   33

  23   rms: 0.6303E-03   max: 0.6153E-02   D at   38  2
       a =  7.000      CL =  1.8991
      Cm = -0.2488     CD =  0.02525   =>   CDf =  0.00719    CDp =  0.01805

 Side 1  free  transition at x/c =  0.4386   62
 Side 2  free  transition at x/c =  0.1833   33

  24   rms: 0.2551E-05   max: 0.2127E-04   D at   36  2
       a =  7.000      CL =  1.8991
      Cm = -0.2488     CD =  0.02525   =>   CDf =  0.00719    CDp =  0.01806

 Point added to stored polar  1
 Point written to save file  000268M0.1.log                                  
 Dump file unspecified or not available
 Calculating wake trajectory ...
 Calculating source influence matrix ...

 Solving BL system ...

 Side 1  free  transition at x/c =  0.4386   62
 Side 2  free  transition at x/c =  0.1833   33

   1   rms: 0.1298E+00   max: -.9065E+00   T at   33  2   RLX: 0.552
       a =  8.000      CL =  1.9381
      Cm = -0.2452     CD =  0.02625   =>   CDf =  0.00689    CDp =  0.01936

 Side 1  free  transition at x/c =  0.4290   62
 Side 2  free  transition at x/c =  0.1914   33

   2   rms: 0.1646E+00   max: -.1070E+01   T at   33  2   RLX: 0.467
       a =  8.000      CL =  1.9517
      Cm = -0.2437     CD =  0.02736   =>   CDf =  0.00728    CDp =  0.02008

 Side 1  free  transition at x/c =  0.4256   62
 Side 2  free  transition at x/c =  0.1945   33

   3   rms: 0.1196E+00   max: -.5196E+00   D at   45  2   RLX: 0.962
       a =  8.000      CL =  1.9704
      Cm = -0.2429     CD =  0.02733   =>   CDf =  0.00706    CDp =  0.02027

 Side 1  free  transition at x/c =  0.4212   62
 Side 2  free  transition at x/c =  0.1992   33

   4   rms: 0.4467E-01   max: -.2460E+00   D at   44  2
       a =  8.000      CL =  1.9724
      Cm = -0.2430     CD =  0.02725   =>   CDf =  0.00717    CDp =  0.02008

 Side 1  free  transition at x/c =  0.4211   62
 Side 2  free  transition at x/c =  0.2001   33

   5   rms: 0.2550E-02   max: 0.2314E-01   D at   37  2
       a =  8.000      CL =  1.9722
      Cm = -0.2429     CD =  0.02726   =>   CDf =  0.00725    CDp =  0.02001

 Side 1  free  transition at x/c =  0.4211   62
 Side 2  free  transition at x/c =  0.1999   33

   6   rms: 0.2423E-04   max: 0.2229E-03   D at   35  2
       a =  8.000      CL =  1.9722
      Cm = -0.2429     CD =  0.02726   =>   CDf =  0.00725    CDp =  0.02002

 Point added to stored polar  1
 Point written to save file  000268M0.1.log                                  
 Dump file unspecified or not available
 Calculating wake trajectory ...
 Calculating source influence matrix ...

 Solving BL system ...

 Side 1  free  transition at x/c =  0.4211   62
 Side 2  free  transition at x/c =  0.1999   33

   1   rms: 0.1275E+00   max: -.8729E+00   T at   33  2   RLX: 0.573
       a =  9.000      CL =  2.0057
      Cm = -0.2385     CD =  0.02875   =>   CDf =  0.00693    CDp =  0.02182

 Side 1  free  transition at x/c =  0.4103   63
 Side 2  free  transition at x/c =  0.2088   33

   2   rms: 0.1637E+00   max: -.1236E+01   T at   33  2   RLX: 0.405
       a =  9.000      CL =  2.0321
      Cm = -0.2391     CD =  0.02940   =>   CDf =  0.00736    CDp =  0.02205

 Side 1  free  transition at x/c =  0.4077   62
 Side 2  free  transition at x/c =  0.2138   33

   3   rms: 0.9953E-01   max: -.4491E+00   D at   41  2
       a =  9.000      CL =  2.0313
      Cm = -0.2355     CD =  0.03005   =>   CDf =  0.00690    CDp =  0.02315

 Side 1  free  transition at x/c =  0.4038   63
 Side 2  free  transition at x/c =  0.2174   32

   4   rms: 0.9989E-02   max: -.6776E-01   D at   40  2
       a =  9.000      CL =  2.0347
      Cm = -0.2360     CD =  0.02999   =>   CDf =  0.00722    CDp =  0.02277

 Side 1  free  transition at x/c =  0.4037   63
 Side 2  free  transition at x/c =  0.2173   32

   5   rms: 0.3798E-03   max: 0.3347E-02   D at   34  2
       a =  9.000      CL =  2.0348
      Cm = -0.2360     CD =  0.03000   =>   CDf =  0.00724    CDp =  0.02276

 Side 1  free  transition at x/c =  0.4037   63
 Side 2  free  transition at x/c =  0.2173   32

   6   rms: 0.3895E-05   max: 0.3393E-04   D at   34  2
       a =  9.000      CL =  2.0348
      Cm = -0.2360     CD =  0.03000   =>   CDf =  0.00724    CDp =  0.02276

 Point added to stored polar  1
 Point written to save file  000268M0.1.log                                  
 Dump file unspecified or not available
 Calculating wake trajectory ...
 Calculating source influence matrix ...

 Solving BL system ...

 Side 1  free  transition at x/c =  0.4037   63
 Side 2  free  transition at x/c =  0.2173   32

   1   rms: 0.1234E+00   max: -.7816E+00   T at   32  2   RLX: 0.640
       a = 10.000      CL =  2.0618
      Cm = -0.2302     CD =  0.03242   =>   CDf =  0.00726    CDp =  0.02516

 Side 1  free  transition at x/c =  0.3913   63
 Side 2  free  transition at x/c =  0.2279   33

   2   rms: 0.6107E-01   max: -.5255E+00   T at   33  2   RLX: 0.952
       a = 10.000      CL =  2.1021
      Cm = -0.2303     CD =  0.03281   =>   CDf =  0.00697    CDp =  0.02583

 Side 1  free  transition at x/c =  0.3874   63
 Side 2  free  transition at x/c =  0.2354   32

   3   rms: 0.6258E-01   max: -.3327E+00   D at   32  2
       a = 10.000      CL =  2.0867
      Cm = -0.2284     CD =  0.03359   =>   CDf =  0.00752    CDp =  0.02607

 Side 1  free  transition at x/c =  0.3863   62
 Side 2  free  transition at x/c =  0.2358   33

   4   rms: 0.3707E-02   max: 0.3916E-01   D at   35  2
       a = 10.000      CL =  2.0885
      Cm = -0.2286     CD =  0.03350   =>   CDf =  0.00719    CDp =  0.02631

 Side 1  free  transition at x/c =  0.3863   62
 Side 2  free  transition at x/c =  0.2358   33

   5   rms: 0.1802E-03   max: 0.1724E-02   D at    4  2
       a = 10.000      CL =  2.0885
      Cm = -0.2286     CD =  0.03350   =>   CDf =  0.00719    CDp =  0.02631

 Side 1  free  transition at x/c =  0.3863   62
 Side 2  free  transition at x/c =  0.2358   33

   6   rms: 0.2550E-04   max: 0.6154E-03   D at    2  2
       a = 10.000      CL =  2.0885
      Cm = -0.2286     CD =  0.03350   =>   CDf =  0.00719    CDp =  0.02631

 Point added to stored polar  1
 Point written to save file  000268M0.1.log                                  
 Dump file unspecified or not available
 Calculating wake trajectory ...
 Calculating source influence matrix ...

 Solving BL system ...

 Side 1  free  transition at x/c =  0.3863   62
 Side 2  free  transition at x/c =  0.2358   33

   1   rms: 0.1234E+00   max: -.7297E+00   T at   33  2   RLX: 0.685
       a = 11.000      CL =  2.1087
      Cm = -0.2221     CD =  0.03702   =>   CDf =  0.00686    CDp =  0.03016

 Side 1  free  transition at x/c =  0.3727   63
 Side 2  free  transition at x/c =  0.2493   33

   2   rms: 0.4902E-01   max: -.3078E+00   D at   63  1
       a = 11.000      CL =  2.1393
      Cm = -0.2216     CD =  0.03754   =>   CDf =  0.00720    CDp =  0.03034

 Side 1  free  transition at x/c =  0.3696   62
 Side 2  free  transition at x/c =  0.2554   33

   3   rms: 0.2177E-01   max: -.1313E+00   D at   33  2
       a = 11.000      CL =  2.1318
      Cm = -0.2209     CD =  0.03807   =>   CDf =  0.00713    CDp =  0.03095

 Side 1  free  transition at x/c =  0.3686   62
 Side 2  free  transition at x/c =  0.2556   33

   4   rms: 0.8922E-03   max: 0.5454E-02   D at   35  2
       a = 11.000      CL =  2.1325
      Cm = -0.2210     CD =  0.03801   =>   CDf =  0.00710    CDp =  0.03092

 Side 1  free  transition at x/c =  0.3686   62
 Side 2  free  transition at x/c =  0.2557   33

   5   rms: 0.2468E-04   max: 0.1878E-03   D at   35  2
       a = 11.000      CL =  2.1325
      Cm = -0.2210     CD =  0.03801   =>   CDf =  0.00710    CDp =  0.03092

 Point added to stored polar  1
 Point written to save file  000268M0.1.log                                  
 Dump file unspecified or not available
 Calculating wake trajectory ...
 Calculating source influence matrix ...

 Solving BL system ...

 Side 1  free  transition at x/c =  0.3686   62
 Side 2  free  transition at x/c =  0.2557   33

   1   rms: 0.1249E+00   max: -.6965E+00   T at   33  2   RLX: 0.659
       a = 12.000      CL =  2.1392
      Cm = -0.2145     CD =  0.04283   =>   CDf =  0.00676    CDp =  0.03607

 Side 1  free  transition at x/c =  0.3553   63
 Side 2  free  transition at x/c =  0.2697   33

   2   rms: 0.5345E-01   max: 0.3920E+00   D at   33  2
       a = 12.000      CL =  2.1637
      Cm = -0.2131     CD =  0.04388   =>   CDf =  0.00701    CDp =  0.03687

 Side 1  free  transition at x/c =  0.3518   62
 Side 2  free  transition at x/c =  0.2756   33

   3   rms: 0.1633E-01   max: -.1042E+00   D at   35  2
       a = 12.000      CL =  2.1664
      Cm = -0.2134     CD =  0.04373   =>   CDf =  0.00697    CDp =  0.03676

 Side 1  free  transition at x/c =  0.3507   62
 Side 2  free  transition at x/c =  0.2772   33

   4   rms: 0.7004E-03   max: 0.4285E-02   D at   34  2
       a = 12.000      CL =  2.1669
      Cm = -0.2135     CD =  0.04370   =>   CDf =  0.00697    CDp =  0.03674

 Side 1  free  transition at x/c =  0.3507   62
 Side 2  free  transition at x/c =  0.2772   33

   5   rms: 0.2445E-04   max: 0.2081E-03   D at   34  2
       a = 12.000      CL =  2.1669
      Cm = -0.2135     CD =  0.04371   =>   CDf =  0.00697    CDp =  0.03674

 Point added to stored polar  1
 Point written to save file  000268M0.1.log                                  
 Dump file unspecified or not available
 Calculating wake trajectory ...
 Calculating source influence matrix ...

 Solving BL system ...

 Side 1  free  transition at x/c =  0.3507   62
 Side 2  free  transition at x/c =  0.2772   33

   1   rms: 0.1295E+00   max: -.6875E+00   T at   33  2   RLX: 0.580
       a = 13.000      CL =  2.1606
      Cm = -0.2078     CD =  0.04962   =>   CDf =  0.00662    CDp =  0.04300

 Side 1  free  transition at x/c =  0.3390   63
 Side 2  free  transition at x/c =  0.2911   33

   2   rms: 0.6975E-01   max: 0.6896E+00   D at   33  2
       a = 13.000      CL =  2.1847
      Cm = -0.2060     CD =  0.05155   =>   CDf =  0.00679    CDp =  0.04477

 Side 1  free  transition at x/c =  0.3331   62
 Side 2  free  transition at x/c =  0.2981   33

   3   rms: 0.2020E-01   max: -.1555E+00   D at   35  2
       a = 13.000      CL =  2.1898
      Cm = -0.2062     CD =  0.05094   =>   CDf =  0.00680    CDp =  0.04414

 Side 1  free  transition at x/c =  0.3326   62
 Side 2  free  transition at x/c =  0.3008   34

   4   rms: 0.1079E-01   max: 0.1443E+00   D at   34  2
       a = 13.000      CL =  2.1909
      Cm = -0.2064     CD =  0.05093   =>   CDf =  0.00679    CDp =  0.04414

 Side 1  free  transition at x/c =  0.3325   62
 Side 2  free  transition at x/c =  0.3004   34

   5   rms: 0.7006E-03   max: 0.6529E-02   D at   34  2
       a = 13.000      CL =  2.1909
      Cm = -0.2064     CD =  0.05093   =>   CDf =  0.00679    CDp =  0.04414

 Side 1  free  transition at x/c =  0.3325   62
 Side 2  free  transition at x/c =  0.3004   34

   6   rms: 0.3338E-05   max: -.1997E-04   D at   83  2
       a = 13.000      CL =  2.1909
      Cm = -0.2064     CD =  0.05093   =>   CDf =  0.00679    CDp =  0.04414

 Point added to stored polar  1
 Point written to save file  000268M0.1.log                                  
 Dump file unspecified or not available
 Calculating wake trajectory ...
 Calculating source influence matrix ...

 Solving BL system ...

 Side 1  free  transition at x/c =  0.3325   62
 Side 2  free  transition at x/c =  0.3004   34

   1   rms: 0.1394E+00   max: -.9001E+00   T at   34  2   RLX: 0.520
       a = 14.000      CL =  2.1826
      Cm = -0.2025     CD =  0.05744   =>   CDf =  0.00682    CDp =  0.05063

 Side 1  free  transition at x/c =  0.3218   62
 Side 2  free  transition at x/c =  0.3106   34

   2   rms: 0.6933E-01   max: -.5132E+00   T at   34  2   RLX: 0.974
       a = 14.000      CL =  2.1968
      Cm = -0.1997     CD =  0.06070   =>   CDf =  0.00620    CDp =  0.05450

 Side 1  free  transition at x/c =  0.3149   62
 Side 2  free  transition at x/c =  0.3270   34

   3   rms: 0.2999E-01   max: 0.3565E+00   D at   34  2
       a = 14.000      CL =  2.2021
      Cm = -0.1998     CD =  0.05995   =>   CDf =  0.00657    CDp =  0.05338

 Side 1  free  transition at x/c =  0.3142   62
 Side 2  free  transition at x/c =  0.3256   34

   4   rms: 0.3091E-02   max: 0.3873E-01   D at   35  2
       a = 14.000      CL =  2.2034
      Cm = -0.1999     CD =  0.05989   =>   CDf =  0.00654    CDp =  0.05335

 Side 1  free  transition at x/c =  0.3142   62
 Side 2  free  transition at x/c =  0.3254   34

   5   rms: 0.8364E-04   max: 0.9883E-03   D at   35  2
       a = 14.000      CL =  2.2035
      Cm = -0.1999     CD =  0.05989   =>   CDf =  0.00654    CDp =  0.05335

 Point added to stored polar  1
 Point written to save file  000268M0.1.log                                  
 Dump file unspecified or not available
 Calculating wake trajectory ...
 Calculating source influence matrix ...

 Solving BL system ...

 Side 1  free  transition at x/c =  0.3142   62
 Side 2  free  transition at x/c =  0.3254   34

   1   rms: 0.1260E+00   max: -.6331E+00   T at   34  2   RLX: 0.467
       a = 15.000      CL =  2.1937
      Cm = -0.1970     CD =  0.06666   =>   CDf =  0.00657    CDp =  0.06009

 Side 1  free  transition at x/c =  0.3040   62
 Side 2  free  transition at x/c =  0.3354   35

   2   rms: 0.9670E-01   max: -.9427E+00   T at   35  2   RLX: 0.530
       a = 15.000      CL =  2.1993
      Cm = -0.1949     CD =  0.06871   =>   CDf =  0.00642    CDp =  0.06229

 Side 1  free  transition at x/c =  0.2996   62
 Side 2  free  transition at x/c =  0.3453   35

   3   rms: 0.1777E+00   max: -.3073E+01   D at    2  2   RLX: 0.163
       a = 15.000      CL =  2.2022
      Cm = -0.1940     CD =  0.06848   =>   CDf =  0.00602    CDp =  0.06245

 Side 1  free  transition at x/c =  0.2990   63
 Side 2  free  transition at x/c =  0.3478   34

   4   rms: 0.5157E-01   max: -.3909E+00   T at   34  2
       a = 15.000      CL =  2.2285
      Cm = -0.1944 Got result {'DD': 1, 'Dmin': 0.02525, 'LL': 0}
Completed successfully in 2.59 seconds. [{'DD': 1, 'Dmin': 0.02525, 'LL': 0}]
    CD =  0.06759   =>   CDf =  0.00644    CDp =  0.06116

 Side 1  free  transition at x/c =  0.2957   62
 Side 2  free  transition at x/c =  0.3634   35

   5   rms: 0.4102E-01   max: 0.3274E+00   D at   35  2
       a = 15.000      CL =  2.2049
      Cm = -0.1943     CD =  0.07107   =>   CDf =  0.00639    CDp =  0.06468

 Side 1  free  transition at x/c =  0.2955   62
 Side 2  free  transition at x/c =  0.3559   35

   6   rms: 0.4636E-02   max: -.7940E-01   D at   37  2
       a = 15.000      CL =  2.2047
      Cm = -0.1942     CD =  0.07076   =>   CDf =  0.00628    CDp =  0.06448

 Side 1  free  transition at x/c =  0.2954   62
 Side 2  free  transition at x/c =  0.3548   35

   7   rms: 0.3328E-03   max: -.6794E-02   D at   37  2
       a = 15.000      CL =  2.2047
      Cm = -0.1942     CD =  0.07076   =>   CDf =  0.00629    CDp =  0.06448

 Side 1  free  transition at x/c =  0.2954   62
 Side 2  free  transition at x/c =  0.3548   35

   8   rms: 0.3636E-05   max: -.3948E-04   D at   37  2
       a = 15.000      CL =  2.2047
      Cm = -0.1942     CD =  0.07076   =>   CDf =  0.00629    CDp =  0.06448

 Point added to stored polar  1
 Point written to save file  000268M0.1.log                                  
 Dump file unspecified or not available

.OPERva   c>  
 XFOIL   c>  
