Job launching after 0.31 seconds in submission.
Running python job.
Changed into dir /home/simonx/Documents/Udacity/Projects/capstone/PESM_NSGA2_CST_XFoil
Importing evaluationFunctionXFoil.py
Running evaluationFunctionXFoil.main()
0
1
2
0.04
resp: 
 ===================================================
  XFOIL Version 6.97
  Copyright (C) 2000   Mark Drela, Harold Youngren

  This software comes with ABSOLUTELY NO WARRANTY,
    subject to the GNU General Public License.

  Caveat computor
 ===================================================

 File  xfoil.def  not found

   QUIT    Exit program

  .OPER    Direct operating point(s)
  .MDES    Complex mapping design routine
  .QDES    Surface speed design routine
  .GDES    Geometry design routine

   SAVE f  Write airfoil to labeled coordinate file
   PSAV f  Write airfoil to plain coordinate file
   ISAV f  Write airfoil to ISES coordinate file
   MSAV f  Write airfoil to MSES coordinate file
   REVE    Reverse written-airfoil node ordering
   DELI i  Change written-airfoil file delimiters

   LOAD f  Read buffer airfoil from coordinate file
   NACA i  Set NACA 4,5-digit airfoil and buffer airfoil
   INTE    Set buffer airfoil by interpolating two airfoils
   NORM    Buffer airfoil normalization toggle
   HALF    Halve the number of points in buffer airfoil
   XYCM rr Change CM reference location, currently  0.25000 0.00000

   BEND    Display structural properties of current airfoil

   PCOP    Set current-airfoil panel nodes directly from buffer airfoil points
   PANE    Set current-airfoil panel nodes ( 160 ) based on curvature
  .PPAR    Show/change paneling

  .PLOP    Plotting options

   WDEF f  Write  current-settings file
   RDEF f  Reread current-settings file
   NAME s  Specify new airfoil name
   NINC    Increment name version number

   Z       Zoom    | (available in all menus)
   U       Unzoom  | 

 XFOIL   c>   ...............................................

  G raphics-enable flag:        T
  S ize of plot object          10.00"
  A spect ratio of plot object   0.5500
  P age dimensions              11.00 x  8.50"
  M argins from page edges       0.00",  0.00"
  F ont size (relative)          0.0150
  W indow/screen size fraction   0.8000
  B lowup input method:        Cursor    
  O rientation of plot:        Landscape 
  C olor PostScript output?     F

      Option, Value   (or <Return>)    c>   ...............................................

  G raphics-enable flag:        F
  S ize of plot object          10.00"
  A spect ratio of plot object   0.5500
  P age dimensions              11.00 x  8.50"
  M argins from page edges       0.00",  0.00"
  F ont size (relative)          0.0150
  W indow/screen size fraction   0.8000
  B lowup input method:        Cursor    
  O rientation of plot:        Landscape 
  C olor PostScript output?     F

      Option, Value   (or <Return>)    c>  
 XFOIL   c>  
 Labeled airfoil file.  Name:  000165                                          

 Number of input coordinate points: 200
 Clockwise ordering
 Max thickness =     0.139723  at x =   0.194
 Max camber    =     0.111739  at x =   0.361

  LE  x,y  =  -0.00005   0.00170  |   Chord =   0.99993
  TE  x,y  =   0.99988   0.00005  |

 Current airfoil nodes set from buffer airfoil nodes ( 200 )

 XFOIL   c>  
 You are working with the buffer airfoil

.GDES   c>  
  i       x        y      angle
   2   0.9990   0.0004   -0.047
   3   0.9978   0.0009    0.036
   4   0.9961   0.0016   -0.006
   5   0.9938   0.0024    0.018
   6   0.9911   0.0035    0.022
   7   0.9880   0.0048    0.012
   8   0.9843   0.0062    0.027
   9   0.9801   0.0079    0.012
  10   0.9755   0.0097    0.029
  11   0.9704   0.0117    0.033
  12   0.9649   0.0139    0.037
  13   0.9589   0.0162    0.034
  14   0.9524   0.0188    0.047
  15   0.9455   0.0215    0.051
  16   0.9382   0.0243    0.047
  17   0.9304   0.0273    0.062
  18   0.9222   0.0305    0.073
  19   0.9135   0.0339    0.069
  20   0.9045   0.0373    0.080
  21   0.8951   0.0409    0.096
  22   0.8853   0.0447    0.102
  23   0.8751   0.0486    0.108
  24   0.8645   0.0525    0.121
  25   0.8536   0.0566    0.135
  26   0.8423   0.0608    0.144
  27   0.8307   0.0651    0.166
  28   0.8187   0.0695    0.169
  29   0.8065   0.0739    0.193
  30   0.7939   0.0784    0.206
  31   0.7810   0.0830    0.227
  32   0.7679   0.0876    0.241
  33   0.7545   0.0922    0.267
  34   0.7409   0.0969    0.285
  35   0.7270   0.1015    0.306
  36   0.7129   0.1061    0.334
  37   0.6986   0.1108    0.355
  38   0.6841   0.1153    0.384
  39   0.6694   0.1199    0.408
  40   0.6545   0.1243    0.436
  41   0.6395   0.1287    0.467
  42   0.6243   0.1330    0.500
  43   0.6091   0.1372    0.527
  44   0.5937   0.1412    0.568
  45   0.5782   0.1452    0.591
  46   0.5627   0.1489    0.630
  47   0.5471   0.1525    0.667
  48   0.5314   0.1560    0.698
  49   0.5157   0.1592    0.737
  50   0.5000   0.1622    0.776
  51   0.4843   0.1650    0.814
  52   0.4686   0.1676    0.846
  53   0.4529   0.1699    0.893
  54   0.4373   0.1720    0.924
  55   0.4218   0.1738    0.963
  56   0.4063   0.1753    1.004
  57   0.3909   0.1766    1.038
  58   0.3757   0.1776    1.079
  59   0.3605   0.1782    1.112
  60   0.3455   0.1786    1.153
  61   0.3306   0.1787    1.182
  62   0.3159   0.1785    1.226
  63   0.3014   0.1779    1.255
  64   0.2871   0.1771    1.287
  65   0.2730   0.1759    1.322
  66   0.2591   0.1745    1.359
  67   0.2455   0.1727    1.386
  68   0.2321   0.1707    1.420
  69   0.2190   0.1683    1.448
  70   0.2061   0.1657    1.486
  71   0.1935   0.1628    1.518
  72   0.1813   0.1596    1.546
  73   0.1693   0.1561    1.586
  74   0.1577   0.1524    1.627
  75   0.1464   0.1485    1.659
  76   0.1355   0.1443    1.703
  77   0.1249   0.1398    1.751
  78   0.1147   0.1352    1.805
  79   0.1049   0.1303    1.860
  80   0.0955   0.1253    1.912
  81   0.0865   0.1201    1.989
  82   0.0778   0.1147    2.068
  83   0.0696   0.1091    2.143
  84   0.0618   0.1034    2.238
  85   0.0545   0.0976    2.343
  86   0.0476   0.0916    2.457
  87   0.0411   0.0855    2.570
  88   0.0351   0.0793    2.712
  89   0.0296   0.0730    2.849
  90   0.0245   0.0667    2.995
  91   0.0199   0.0602    3.153
  92   0.0157   0.0537    3.325
  93   0.0120   0.0471    3.460
  94   0.0089   0.0405    3.636
  95   0.0062   0.0338    3.774
  96   0.0039   0.0271    3.899
  97   0.0022   0.0203    4.020
  98   0.0010   0.0136    4.094
  99   0.0002   0.0068    4.146
 100   0.0000   0.0000    9.977
 101   0.0002  -0.0018   15.042
 102   0.0010  -0.0035   13.272
 103   0.0022  -0.0052   11.200
 104   0.0039  -0.0068    9.216
 105   0.0062  -0.0083    7.651
 106   0.0089  -0.0096    6.375
 107   0.0120  -0.0107    5.368
 108   0.0157  -0.0116    4.601
 109   0.0199  -0.0123    3.942
 110   0.0245  -0.0127    3.404
 111   0.0296  -0.0129    2.956
 112   0.0351  -0.0128    2.566
 113   0.0411  -0.0124    2.224
 114   0.0476  -0.0118    1.924
 115   0.0545  -0.0109    1.641
 116   0.0618  -0.0097    1.403
 117   0.0696  -0.0082    1.174
 118   0.0778  -0.0065    0.967
 119   0.0865  -0.0045    0.771
 120   0.0955  -0.0023    0.594
 121   0.1049   0.0000    0.428
 122   0.1147   0.0026    0.268
 123   0.1249   0.0053    0.129
 124   0.1355   0.0082   -0.021
 125   0.1464   0.0111   -0.138
 126   0.1577   0.0141   -0.262
 127   0.1693   0.0171   -0.377
 128   0.1813   0.0201   -0.478
 129   0.1935   0.0231   -0.578
 130   0.2061   0.0260   -0.660
 131   0.2190   0.0289   -0.745
 132   0.2321   0.0316   -0.809
 133   0.2455   0.0342   -0.872
 134   0.2591   0.0366   -0.928
 135   0.2730   0.0389   -0.960
 136   0.2871   0.0409   -1.000
 137   0.3014   0.0427   -1.019
 138   0.3159   0.0443   -1.033
 139   0.3306   0.0456   -1.031
 140   0.3455   0.0466   -1.030
 141   0.3605   0.0474   -1.013
 142   0.3757   0.0480   -0.987
 143   0.3909   0.0483   -0.961
 144   0.4063   0.0483   -0.915
 145   0.4218   0.0481   -0.880
 146   0.4373   0.0476   -0.821
 147   0.4529   0.0469   -0.770
 148   0.4686   0.0460   -0.710
 149   0.4843   0.0449   -0.653
 150   0.5000   0.0437   -0.587
 151   0.5157   0.0422   -0.522
 152   0.5314   0.0407   -0.456
 153   0.5471   0.0389   -0.388
 154   0.5627   0.0371   -0.324
 155   0.5782   0.0353   -0.263
 156   0.5937   0.0333   -0.197
 157   0.6091   0.0313   -0.140
 158   0.6243   0.0293   -0.078
 159   0.6395   0.0273   -0.025
 160   0.6545   0.0253    0.029
 161   0.6694   0.0233    0.075
 162   0.6841   0.0213    0.117
 163   0.6986   0.0195    0.167
 164   0.7129   0.0176    0.197
 165   0.7270   0.0159    0.230
 166   0.7409   0.0142    0.263
 167   0.7545   0.0127    0.288
 168   0.7679   0.0112    0.307
 169   0.7810   0.0098    0.318
 170   0.7939   0.0086    0.341
 171   0.8065   0.0074    0.343
 172   0.8187   0.0063    0.352
 173   0.8307   0.0054    0.352
 174   0.8423   0.0045    0.348
 175   0.8536   0.0037    0.346
 176   0.8645   0.0031    0.344
 177   0.8751   0.0025    0.332
 178   0.8853   0.0020    0.314
 179   0.8951   0.0015    0.312
 180   0.9045   0.0011    0.287
 181   0.9135   0.0008    0.279
 182   0.9222   0.0006    0.263
 183   0.9304   0.0004    0.246
 184   0.9382   0.0002    0.219
 185   0.9455   0.0001    0.213
 186   0.9524   0.0000    0.196
 187   0.9589  -0.0001    0.168
 188   0.9649  -0.0001    0.165
 189   0.9704  -0.0001    0.138
 190   0.9755  -0.0001    0.128
 191   0.9801  -0.0001    0.102
 192   0.9843  -0.0001    0.098
 193   0.9880  -0.0001    0.092
 194   0.9911  -0.0001    0.062
 195   0.9938  -0.0001    0.063
 196   0.9961  -0.0000    0.066
 197   0.9978  -0.0000   -0.020
 198   0.9990  -0.0000    0.108
 199   0.9998  -0.0000   -0.155

 Maximum panel corner angle = 15.042   at  i,x,y  = 101   0.0002  -0.0018

 Enter corner angle criterion for refinement (deg):   7.521
 Enter type of spline parameter (1=uniform, 2=arclength):   1
 Enter refinement x limits:  -0.10000   1.10000
 Number of points added:           12
 Max thickness =     0.139658  at x =   0.194
 Max camber    =     0.112946  at x =   0.361

 Maximum panel corner angle = 13.857   at  i,x,y  = 103   0.0001  -0.0015

.GDES   c>  
 Buffer airfoil is not identical to current airfoil

 XFOIL   c>  
 Blunt trailing edge.  Gap =  0.00027

 Paneling parameters used...
   Number of panel nodes       160
   Panel bunching parameter    1.000
   TE/LE panel density ratio   0.150
   Refined-area/LE panel density ratio    0.200
   Top    side refined area x/c limits  1.000 1.000
   Bottom side refined area x/c limits  1.000 1.000

 XFOIL   c>  
Enter output filename   s>  
 XFOIL   c>  
.OPERi   c>   Current iteration limit:          20

Enter new iteration limit   i>  
Enter new iteration limit   i>  
Enter new iteration limit   i>  
.OPERi   c>  
 M  =    0.0000
 Re =  0.3000E+06

.OPERv   c>  
 Sonic Cp =   -420.65      Sonic Q/Qinf =    22.825


.OPERv   c>  
 Polar  1 newly created for accumulation
 Airfoil archived with polar: 000165                                          

Enter  polar save filename  OR  <return> for no file   s>  
 New polar save file available

Enter  polar dump filename  OR  <return> for no file   s>  
 Polar dump file will NOT be written

 Polar accumulation enabled

.OPERva   c>   Calculating unit vorticity distributions ...
 Calculating wake trajectory ...
 Calculating source influence matrix ...

 Solving BL system ...

 Initializing BL ...
    side            1  ...
 MRCHUE: Inverse mode at  49     Hk =   4.164
 MRCHUE: Inverse mode at  50     Hk =   4.978
 MRCHUE: Inverse mode at  51     Hk =   5.775
 MRCHUE: Inverse mode at  52     Hk =   6.559
 MRCHUE: Inverse mode at  53     Hk =   7.334
 MRCHUE: Inverse mode at  54     Hk =   8.103
 MRCHUE: Inverse mode at  55     Hk =   8.869
 MRCHUE: Inverse mode at  56     Hk =   7.572
 MRCHUE: Inverse mode at  57     Hk =   4.707
 MRCHUE: Inverse mode at  58     Hk =   3.019
 MRCHUE: Inverse mode at  82     Hk =   2.500
 MRCHUE: Inverse mode at  83     Hk =   2.500
 MRCHUE: Convergence failed at  84  side 1    Res =  0.1261E+02
    side            2  ...
 MRCHUE: Inverse mode at  23     Hk =   4.035
 MRCHUE: Inverse mode at  24     Hk =   4.636
 MRCHUE: Inverse mode at  25     Hk =   5.260
 MRCHUE: Inverse mode at  26     Hk =   5.916
 MRCHUE: Inverse mode at  27     Hk =   6.615
 MRCHUE: Inverse mode at  28     Hk =   7.363
 MRCHUE: Inverse mode at  29     Hk =   8.166
 MRCHUE: Inverse mode at  30     Hk =   9.021
 MRCHUE: Inverse mode at  31     Hk =   9.915
 MRCHUE: Inverse mode at  32     Hk =   5.641
 MRCHUE: Inverse mode at  33     Hk =   3.622
 MRCHUE: Inverse mode at  34     Hk =   2.500
 MRCHUE: Convergence failed at  78  side 2    Res =  0.4020E+01
 MRCHUE: Convergence failed at  80  side 2    Res =  0.1292E+00

 MRCHDU: Convergence failed at  84  side 1    Res =  0.1261E+02
 MRCHDU: Convergence failed at  78  side 2    Res =  0.1201E+01
 Side 1  free  transition at x/c =  0.4942   56
 Side 2  free  transition at x/c =  0.1509   32

   1   rms: 0.7775E+00   max: 0.3804E+01   D at   81  2   RLX: 0.394
       a =  2.000      CL =  1.3272
      Cm = -0.1891     CD =  0.00608   =>   CDf =  0.00848    CDp = -0.00241

 Side 1  free  transition at x/c =  0.5023   57
 Side 2  free  transition at x/c =  0.1482   31

   2   rms: 0.3228E+00   max: 0.1983E+01   T at   31  2   RLX: 0.365
       a =  2.000      CL =  1.2714
      Cm = -0.1777     CD =  0.00942   =>   CDf =  0.00861    CDp =  0.00082

 Side 1  free  transition at x/c =  0.5070   57
 Side 2  free  transition at x/c =  0.1350   31

   3   rms: 0.1884E+00   max: 0.1067E+01   T at   31  2   RLX: 0.656
       a =  2.000      CL =  1.2057
      Cm = -0.1629     CD =  0.01420   =>   CDf =  0.00856    CDp =  0.00564

 MRCHDU: Convergence failed at  32  side 2    Res =  0.9584E+02
 MRCHDU: Convergence failed at  33  side 2    Res =  0.3263E+02
 MRCHDU: Convergence failed at  34  side 2    Res =  0.1711E+02
 MRCHDU: Convergence failed at  35  side 2    Res =  0.2236E+02
 MRCHDU: Convergence failed at  36  side 2    Res =  0.5903E+02
 MRCHDU: Convergence failed at  37  side 2    Res =  0.4687E+02
 MRCHDU: Convergence failed at  38  side 2    Res =  0.3766E+02
 MRCHDU: Convergence failed at  39  side 2    Res =  0.3418E+02
 MRCHDU: Convergence failed at  40  side 2    Res =  0.3245E+02
 MRCHDU: Convergence failed at  41  side 2    Res =  0.3140E+02
 MRCHDU: Convergence failed at  42  side 2    Res =  0.1124E+03
 MRCHDU: Convergence failed at  43  side 2    Res =  0.3253E+02
 MRCHDU: Convergence failed at  44  side 2    Res =  0.3569E+02
 MRCHDU: Convergence failed at  45  side 2    Res =  0.1682E+03
 MRCHDU: Convergence failed at  46  side 2    Res =  0.8031E+04
 MRCHDU: Convergence failed at  47  side 2    Res =  0.5764E+02
 MRCHDU: Convergence failed at  48  side 2    Res =  0.7888E+02
 MRCHDU: Convergence failed at  49  side 2    Res =  0.1123E+03
 MRCHDU: Convergence failed at  50  side 2    Res =  0.7610E+02
 MRCHDU: Convergence failed at  51  side 2    Res =  0.1158E+03
 MRCHDU: Convergence failed at  52  side 2    Res =  0.1479E+03
 MRCHDU: Convergence failed at  53  side 2    Res =  0.5782E+03
 MRCHDU: Convergence failed at  54  side 2    Res =  0.8871E+03
 MRCHDU: Convergence failed at  55  side 2    Res =  0.3041E+03
 MRCHDU: Convergence failed at  56  side 2    Res =  0.1235E+03
 MRCHDU: Convergence failed at  57  side 2    Res =  0.1257E+03
 MRCHDU: Convergence failed at  58  side 2    Res =  0.7203E+02
 MRCHDU: Convergence failed at  59  side 2    Res =  0.3111E+02
 MRCHDU: Convergence failed at  60  side 2    Res =  0.2161E+02
 MRCHDU: Convergence failed at  61  side 2    Res =  0.1314E+02
 MRCHDU: Convergence failed at  62  side 2    Res =  0.8010E+01
 MRCHDU: Convergence failed at  63  side 2    Res =  0.4043E+03
 MRCHDU: Convergence failed at  64  side 2    Res =  0.7017E+02
 MRCHDU: Convergence failed at  65  side 2    Res =  0.3406E+02
 MRCHDU: Convergence failed at  66  side 2    Res =  0.1436E+02
 MRCHDU: Convergence failed at  67  side 2    Res =  0.9093E+01
 Side 1  free  transition at x/c =  0.5141   56
 Side 2  free  transition at x/c =  0.1307   31

   4   rms: 0.4695E+00   max: 0.3798E+01   T at   31  2   RLX: 0.365
       a =  2.000      CL =  1.0407
      Cm = -0.1349     CD =  0.01461   =>   CDf =  0.00624    CDp =  0.00836

 MRCHDU: Convergence failed at  31  side 2    Res =  0.9654E+01
 MRCHDU: Convergence failed at  58  side 2    Res =  0.1349E+00
 MRCHDU: Convergence failed at  59  side 2    Res =  0.1598E+00
 MRCHDU: Convergence failed at  60  side 2    Res =  0.1805E+00
 MRCHDU: Convergence failed at  61  side 2    Res =  0.1988E+00
 MRCHDU: Convergence failed at  62  side 2    Res =  0.2152E+00
 MRCHDU: Convergence failed at  63  side 2    Res =  0.2296E+00
 MRCHDU: Convergence failed at  64  side 2    Res =  0.2419E+00
 MRCHDU: Convergence failed at  65  side 2    Res =  0.2519E+00
 MRCHDU: Convergence failed at  66  side 2    Res =  0.2596E+00
 MRCHDU: Convergence failed at  67  side 2    Res =  0.2645E+00
 MRCHDU: Convergence failed at  68  side 2    Res =  0.3644E+00
 MRCHDU: Convergence failed at  69  side 2    Res =  0.3735E+00
 MRCHDU: Convergence failed at  70  side 2    Res =  0.4116E+00
 MRCHDU: Convergence failed at  71  side 2    Res =  0.4300E+00
 MRCHDU: Convergence failed at  72  side 2    Res =  0.4372E+00
 MRCHDU: Convergence failed at  73  side 2    Res =  0.4340E+00
 MRCHDU: Convergence failed at  74  side 2    Res =  0.4201E+00
 MRCHDU: Convergence failed at  75  side 2    Res =  0.3967E+00
 MRCHDU: Convergence failed at  76  side 2    Res =  0.3605E+00
 MRCHDU: Convergence failed at  77  side 2    Res =  0.3062E+00
 MRCHDU: Convergence failed at  78  side 2    Res =  0.2449E+00
 MRCHDU: Convergence failed at  79  side 2    Res =  0.1238E+00
 Side 1  free  transition at x/c =  0.5161   56
 Side 2  free  transition at x/c =  0.1169   30

   5   rms: 0.4530E+00   max: 0.5014E+01   T at   30  2   RLX: 0.234
       a =  2.000      CL =  1.1314
      Cm = -0.1833     CD =  0.03359   =>   CDf =  0.00534    CDp =  0.02825

 Side 1  free  transition at x/c =  0.5172   56
 Side 2  free  transition at x/c =  0.1079   29

   6   rms: 0.6589E+00   max: 0.6126E+01   T at   29  2   RLX: 0.102
       a =  2.000      CL =  1.1429
      Cm = -0.1872     CD =  0.03661   =>   CDf =  0.00527    CDp =  0.03134

 Side 1  free  transition at x/c =  0.5172   56
 Side 2  free  transition at x/c =  0.1048   29

   7   rms: 0.4604E+00   max: -.2391E+01   D at   75  2   RLX: 0.209
       a =  2.000      CL =  1.1540
      Cm = -0.1906     CD =  0.03372   =>   CDf =  0.00522    CDp =  0.02850

 Side 1  free  transition at x/c =  0.5172   56
 Side 2  free  transition at x/c =  0.1054   29

   8   rms: 0.5863E+00   max: -.2897E+01   D at   74  2   RLX: 0.173
       a =  2.000      CL =  1.2101
      Cm = -0.2045     CD =  0.02991   =>   CDf =  0.00531    CDp =  0.02460

 Side 1  free  transition at x/c =  0.5165   56
 Side 2  free  transition at x/c =  0.1103   30

   9   rms: 0.4560E+00   max: -.2351E+01   D at   74  2   RLX: 0.213
       a =  2.000      CL =  1.2428
      Cm = -0.2078     CD =  0.02723   =>   CDf =  0.00552    CDp =  0.02170

 Side 1  free  transition at x/c =  0.5161   56
 Side 2  free  transition at x/c =  0.1122   30

  10   rms: 0.4589E+00   max: -.2149E+01   D at   74  2   RLX: 0.233
       a =  2.000      CL =  1.2616
      Cm = -0.2069     CD =  0.02520   =>   CDf =  0.00573    CDp =  0.01947

 Side 1  free  transition at x/c =  0.5159   56
 Side 2  free  transition at x/c =  0.1146   30

  11   rms: 0.4528E+00   max: -.2025E+01   D at   67  2   RLX: 0.247
       a =  2.000      CL =  1.2667
      Cm = -0.2024     CD =  0.02342   =>   CDf =  0.00602    CDp =  0.01740

 Side 1  free  transition at x/c =  0.5161   56
 Side 2  free  transition at x/c =  0.1167   30

  12   rms: 0.4437E+00   max: -.1771E+01   D at   69  2   RLX: 0.282
       a =  2.000      CL =  1.2592
      Cm = -0.1946     CD =  0.02165   =>   CDf =  0.00636    CDp =  0.01529

 Side 1  free  transition at x/c =  0.5166   56
 Side 2  free  transition at x/c =  0.1192   30

  13   rms: 0.2973E+00   max: 0.2614E+01   T at   30  2   RLX: 0.301
       a =  2.000      CL =  1.2337
      Cm = -0.1843     CD =  0.02142   =>   CDf =  0.00676    CDp =  0.01466

 Side 1  free  transition at x/c =  0.5170   56
 Side 2  free  transition at x/c =  0.1128   30

  14   rms: 0.3052E+00   max: -.1193E+01   D at   72  2   RLX: 0.419
       a =  2.000      CL =  1.2130
      Cm = -0.1746     CD =  0.02155   =>   CDf =  0.00660    CDp =  0.01495

 Side 1  free  transition at x/c =  0.5176   56
 Side 2  free  transition at x/c =  0.1134   30

  15   rms: 0.2707E+00   max: -.1080E+01   D at   53  2   RLX: 0.463
       a =  2.000      CL =  1.1967
      Cm = -0.1665     CD =  0.01994   =>   CDf =  0.00700    CDp =  0.01293

 Side 1  free  transition at x/c =  0.5182   56
 Side 2  free  transition at x/c =  0.1151   30

  16   rms: 0.2526E+00   max: -.9666E+00   D at   40  2   RLX: 0.517
       a =  2.000      CL =  1.1829
      Cm = -0.1606     CD =  0.01849   =>   CDf =  0.00741    CDp =  0.01108

 Side 1  free  transition at x/c =  0.5186   56
 Side 2  free  transition at x/c =  0.1190   30

  17   rms: 0.2496E+00   max: -.1184E+01   D at   36  2   RLX: 0.422
       a =  2.000      CL =  1.1766
      Cm = -0.1580     CD =  0.01770   =>   CDf =  0.00781    CDp =  0.00989

 Side 1  free  transition at x/c =  0.5189   56
 Side 2  free  transition at x/c =  0.1244   31

  18   rms: 0.4931E-01   max: -.3983E+00   D at   38  2
       a =  2.000      CL =  1.1635
      Cm = -0.1541     CD =  0.01713   =>   CDf =  0.00809    CDp =  0.00904

 Side 1  free  transition at x/c =  0.5189   56
 Side 2  free  transition at x/c =  0.1212   30

  19   rms: 0.1300E-01   max: 0.1398E+00   T at   30  2
       a =  2.000      CL =  1.1630
      Cm = -0.1540     CD =  0.01737   =>   CDf =  0.00824    CDp =  0.00913

 Side 1  free  transition at x/c =  0.5189   56
 Side 2  free  transition at x/c =  0.1199   30

  20   rms: 0.4897E-02   max: -.5429E-01   D at   56  1
       a =  2.000      CL =  1.1630
      Cm = -0.1540     CD =  0.01738   =>   CDf =  0.00823    CDp =  0.00915

 Side 1  free  transition at x/c =  0.5189   56
 Side 2  free  transition at x/c =  0.1199   30

  21   rms: 0.4708E-02   max: -.5437E-01   D at   56  1
       a =  2.000      CL =  1.1630
      Cm = -0.1540     CD =  0.01738   =>   CDf =  0.00823    CDp =  0.00915

 Side 1  free  transition at x/c =  0.5189   56
 Side 2  free  transition at x/c =  0.1199   30

  22   rms: 0.4708E-02   max: -.5436E-01   D at   56  1
       a =  2.000      CL =  1.1630
      Cm = -0.1540     CD =  0.01738   =>   CDf =  0.00823    CDp =  0.00915

 Side 1  free  transition at x/c =  0.5189   56
 Side 2  free  transition at x/c =  0.1199   30

  23   rms: 0.4708E-02   max: -.5436E-01   D at   56  1
       a =  2.000      CL =  1.1630
      Cm = -0.1540     CD =  0.01738   =>   CDf =  0.00823    CDp =  0.00915

 Side 1  free  transition at x/c =  0.5189   56
 Side 2  free  transition at x/c =  0.1199   30

  24   rms: 0.4708E-02   max: -.5436E-01   D at   56  1
       a =  2.000      CL =  1.1630
      Cm = -0.1540     CD =  0.01738   =>   CDf =  0.00823    CDp =  0.00915

 Side 1  free  transition at x/c =  0.5189   56
 Side 2  free  transition at x/c =  0.1199   30

  25   rms: 0.4708E-02   max: -.5436E-01   D at   56  1
       a =  2.000      CL =  1.1630
      Cm = -0.1540     CD =  0.01738   =>   CDf =  0.00823    CDp =  0.00915
 VISCAL:  Convergence failed
 Calculating wake trajectory ...
 Calculating source influence matrix ...

 Solving BL system ...

 Side 1  free  transition at x/c =  0.5189   56
 Side 2  free  transition at x/c =  0.1199   30

   1   rms: 0.1750E+00   max: -.1757E+01   T at   30  2   RLX: 0.285
       a =  3.000      CL =  1.1842
      Cm = -0.1520     CD =  0.01755   =>   CDf =  0.00824    CDp =  0.00931

 Side 1  free  transition at x/c =  0.5141   56
 Side 2  free  transition at x/c =  0.1289   31

   2   rms: 0.1388E+00   max: 0.1311E+01   D at   31  2   RLX: 0.808
       a =  3.000      CL =  1.2363
      Cm = -0.1502     CD =  0.01755   =>   CDf =  0.00800    CDp =  0.00955

 Side 1  free  transition at x/c =  0.5026   57
 Side 2  free  transition at x/c =  0.1401   31

   3   rms: 0.3473E-01   max: -.2386E+00   D at   57  1
       a =  3.000      CL =  1.2562
      Cm = -0.1511     CD =  0.01753   =>   CDf =  0.00827    CDp =  0.00926

 Side 1  free  transition at x/c =  0.5025   57
 Side 2  free  transition at x/c =  0.1441   31

   4   rms: 0.1259E-01   max: -.7396E-01   D at   32  2
       a =  3.000      CL =  1.2574
      Cm = -0.1513     CD =  0.01754   =>   CDf =  0.00823    CDp =  0.00932

 Side 1  free  transition at x/c =  0.5022   57
 Side 2  free  transition at x/c =  0.1449   31

   5   rms: 0.3211E-03   max: 0.3295E-02   D at   32  2
       a =  3.000      CL =  1.2573
      Cm = -0.1513     CD =  0.01754   =>   CDf =  0.00825    CDp =  0.00930

 Side 1  free  transition at x/c =  0.5022   57
 Side 2  free  transition at x/c =  0.1448   31

   6   rms: 0.2402E-05   max: 0.1728E-04   D at   32  2
       a =  3.000      CL =  1.2573
      Cm = -0.1513     CD =  0.01754   =>   CDf =  0.00825    CDp =  0.00930

 Point added to stored polar  1
 Point written to save file  000165M0.04.log                                 
 Dump file unspecified or not available
 Calculating wake trajectory ...
 Calculating source influence matrix ...

 Solving BL system ...

 Side 1  free  transition at x/c =  0.5022   57
 Side 2  free  transition at x/c =  0.1448   31

   1   rms: 0.1832E+00   max: -.1549E+01   T at   31  2   RLX: 0.323
       a =  4.000      CL =  1.2967
      Cm = -0.1522     CD =  0.01783   =>   CDf =  0.00808    CDp =  0.00975

 Side 1  free  transition at x/c =  0.4978   57
 Side 2  free  transition at x/c =  0.1570   31

   2   rms: 0.9761E-01   max: 0.6115E+00   D at   31  2   RLX: 0.867
       a =  4.000      CL =  1.3303
      Cm = -0.1468     CD =  0.01792   =>   CDf =  0.00825    CDp =  0.00967

 Side 1  free  transition at x/c =  0.4850   57
 Side 2  free  transition at x/c =  0.1682   32

   3   rms: 0.7861E-01   max: -.4660E+00   T at   32  2
       a =  4.000      CL =  1.3478
      Cm = -0.1482     CD =  0.01773   =>   CDf =  0.00815    CDp =  0.00958

 Side 1  free  transition at x/c =  0.4858   58
 Side 2  free  transition at x/c =  0.1752   31

   4   rms: 0.2714E-01   max: -.2076E+00   T at    2  1
       a =  4.000      CL =  1.3465
      Cm = -0.1479     CD =  0.01793   =>   CDf =  0.00824    CDp =  0.00970

 Side 1  free  transition at x/c =  0.4855   58
 Side 2  free  transition at x/c =  0.1735   31

   5   rms: 0.1490E-02   max: 0.1413E-01   D at    4  1
       a =  4.000      CL =  1.3463
      Cm = -0.1478     CD =  0.01794   =>   CDf =  0.00825    CDp =  0.00969

 Side 1  free  transition at x/c =  0.4855   58
 Side 2  free  transition at x/c =  0.1735   31

   6   rms: 0.3381E-05   max: -.3052E-04   D at   34  2
       a =  4.000      CL =  1.3463
      Cm = -0.1478     CD =  0.01794   =>   CDf =  0.00825    CDp =  0.00969

 Point added to stored polar  1
 Point written to save file  000165M0.04.log                                 
 Dump file unspecified or not available
 Calculating wake trajectory ...
 Calculating source influence matrix ...

 Solving BL system ...

 Side 1  free  transition at x/c =  0.4855   58
 Side 2  free  transition at x/c =  0.1735   31

   1   rms: 0.1722E+00   max: -.1448E+01   T at   31  2   RLX: 0.345
       a =  5.000      CL =  1.3847
      Cm = -0.1482     CD =  0.01822   =>   CDf =  0.00826    CDp =  0.00996

 Side 1  free  transition at x/c =  0.4811   57
 Side 2  free  transition at x/c =  0.1850   32

   2   rms: 0.1603E+00   max: -.1289E+01   T at   32  2   RLX: 0.388
       a =  5.000      CL =  1.3983
      Cm = -0.1460     CD =  0.01822   =>   CDf =  0.00832    CDp =  0.00989

 Side 1  free  transition at x/c =  0.4759   57
 Side 2  free  transition at x/c =  0.1935   32

   3   rms: 0.8327E-01   max: -.5808E+00   T at   32  2   RLX: 0.861
       a =  5.000      CL =  1.4195
      Cm = -0.1429     CD =  0.01863   =>   CDf =  0.00800    CDp =  0.01064

 Side 1  free  transition at x/c =  0.4692   58
 Side 2  free  transition at x/c =  0.2064   32

   4   rms: 0.2734E-01   max: -.2964E+00   T at    2  1
       a =  5.000      CL =  1.4256
      Cm = -0.1429     CD =  0.01858   =>   CDf =  0.00821    CDp =  0.01037

 Side 1  free  transition at x/c =  0.4692   58
 Side 2  free  transition at x/c =  0.2070   32

   5   rms: 0.1470E-02   max: 0.8418E-02   D at   58  1
       a =  5.000      CL =  1.4269
      Cm = -0.1432     CD =  0.01858   =>   CDf =  0.00819    CDp =  0.01039

 Side 1  free  transition at x/c =  0.4691   58
 Side 2  free  transition at x/c =  0.2072   32

   6   rms: 0.3003E-04   max: 0.2137E-03   D at   86  1
       a =  5.000      CL =  1.4269
      Cm = -0.1432     CD =  0.01858   =>   CDf =  0.00819    CDp =  0.01039

 Point added to stored polar  1
 Point written to save file  000165M0.04.log                                 
 Dump file unspecified or not available
 Calculating wake trajectory ...
 Calculating source influence matrix ...

 Solving BL system ...

 Side 1  free  transition at x/c =  0.4691   58
 Side 2  free  transition at x/c =  0.2072   32

   1   rms: 0.1671E+00   max: -.1427E+01   T at   32  2   RLX: 0.350
       a =  6.000      CL =  1.4614
      Cm = -0.1428     CD =  0.01884   =>   CDf =  0.00821    CDp =  0.01063

 Side 1  free  transition at x/c =  0.4644   57
 Side 2  free  transition at x/c =  0.2219   33

   2   rms: 0.9506E-01   max: -.7937E+00   T at   33  2   RLX: 0.630
       a =  6.000      CL =  1.4758
      Cm = -0.1378     CD =  0.01933   =>   CDf =  0.00825    CDp =  0.01108

 Side 1  free  transition at x/c =  0.4566   57
 Side 2  free  transition at x/c =  0.2334   33

   3   rms: 0.5904E-01   max: -.6754E+00   T at   33  2   RLX: 0.740
       a =  6.000      CL =  1.4958
      Cm = -0.1380     CD =  0.01994   =>   CDf =  0.00820    CDp =  0.01174

 MRCHDU: Convergence failed at  35  side 2    Res =  0.2413E+01
 MRCHDU: Convergence failed at  36  side 2    Res =  0.7150E+01
 MRCHDU: Convergence failed at  37  side 2    Res =  0.3943E+01
 MRCHDU: Convergence failed at  38  side 2    Res =  0.3896E+01
 MRCHDU: Convergence failed at  39  side 2    Res =  0.3998E+01
 MRCHDU: Convergence failed at  40  side 2    Res =  0.4002E+01
 MRCHDU: Convergence failed at  41  side 2    Res =  0.3925E+01
 MRCHDU: Convergence failed at  42  side 2    Res =  0.3789E+01
 MRCHDU: Convergence failed at  43  side 2    Res =  0.3625E+01
 MRCHDU: Convergence failed at  44  side 2    Res =  0.3905E+01
 MRCHDU: Convergence failed at  45  side 2    Res =  0.3876E+01
 MRCHDU: Convergence failed at  46  side 2    Res =  0.4011E+01
 Side 1  free  transition at x/c =  0.4536   57
 Side 2  free  transition at x/c =  0.2484   34

   4   rms: 0.9502E-01   max: -.7422E+00   D at   46  2   RLX: 0.674
       a =  6.000      CL =  1.4951
      Cm = -0.1378     CD =  0.01943   =>   CDf =  0.00773    CDp =  0.01171

 Side 1  free  transition at x/c =  0.4531   57
 Side 2  free  transition at x/c =  0.2409   34

   5   rms: 0.5567E-01   max: -.7085E+00   D at   36  2   RLX: 0.706
       a =  6.000      CL =  1.5023
      Cm = -0.1384     CD =  0.01972   =>   CDf =  0.00798    CDp =  0.01175

 Side 1  free  transition at x/c =  0.4529   58
 Side 2  free  transition at x/c =  0.2476   33

   6   rms: 0.3357E-01   max: -.4950E+00   D at   35  2
       a =  6.000      CL =  1.5040
      Cm = -0.1385     CD =  0.01959   =>   CDf =  0.00812    CDp =  0.01147

 Side 1  free  transition at x/c =  0.4529   58
 Side 2  free  transition at x/c =  0.2528   34

   7   rms: 0.7985E-02   max: 0.1241E+00   D at   34  2
       a =  6.000      CL =  1.5040
      Cm = -0.1385     CD =  0.01958   =>   CDf =  0.00810    CDp =  0.01148

 Side 1  free  transition at x/c =  0.4529   58
 Side 2  free  transition at x/c =  0.2516   34

   8   rms: 0.6569E-03   max: 0.7304E-02   D at   34  2
       a =  6.000      CL =  1.5040
      Cm = -0.1385     CD =  0.01958   =>   CDf =  0.00810    CDp =  0.01148

 Side 1  free  transition at x/c =  0.4529   58
 Side 2  free  transition at x/c =  0.2515   34

   9   rms: 0.6489E-05   max: 0.7996E-04   D at    4  1
       a =  6.000      CL =  1.5040
      Cm = -0.1385     CD =  0.01958   =>   CDf =  0.00810    CDp =  0.01148

 Point added to stored polar  1
 Point written to save file  000165M0.04.log                                 
 Dump file unspecified or not available
 Calculating wake trajectory ...
 Calculating source influence matrix ...

 Solving BL system ...

 Side 1  free  transition at x/c =  0.4529   58
 Side 2  free  transition at x/c =  0.2515   34

   1   rms: 0.2100E+00   max: -.1780E+01   T at   34  2   RLX: 0.281
       a =  7.000      CL =  1.5279
      Cm = -0.1378     CD =  0.01972   =>   CDf =  0.00811    CDp =  0.01161

 Side 1  free  transition at x/c =  0.4486   58
 Side 2  free  transition at x/c =  0.2671   34

   2   rms: 0.1737E+00   max: -.1902E+01   T at   34  2   RLX: 0.263
       a =  7.000      CL =  1.5554
      Cm = -0.1389     CD =  0.02046   =>   CDf =  0.00822    CDp =  0.01224

 MRCHDU: Convergence failed at  36  side 2    Res =  0.3537E+01
 MRCHDU: Convergence failed at  37  side 2    Res =  0.3437E+01
 MRCHDU: Convergence failed at  38  side 2    Res =  0.6693E+01
 MRCHDU: Convergence failed at  39  side 2    Res =  0.1062E+02
 MRCHDU: Convergence failed at  40  side 2    Res =  0.9929E+01
 MRCHDU: Convergence failed at  41  side 2    Res =  0.6457E+01
 Side 1  free  transition at x/c =  0.4458   57
 Side 2  free  transition at x/c =  0.2867   36

   3   rms: 0.1102E+00   max: -.7982E+00   D at   41  2   RLX: 0.626
       a =  7.000      CL =  1.5590
      Cm = -0.1344     CD =  0.02049   =>   CDf =  0.00788    CDp =  0.01261

 Side 1  free  transition at x/c =  0.4397   57
 Side 2  free  transition at x/c =  0.3113   37

   4   rms: 0.4425E-01   max: -.3875E+00   T at   37  2
       a =  7.000      CL =  1.5751
      Cm = -0.1336     CD =  0.02086   =>   CDf =  0.00799    CDp =  0.01287

 Side 1  free  transition at x/c =  0.4364   57
 Side 2  free  transition at x/c =  0.3397   39

   5   rms: 0.1599E-01   max: -.2232E+00   C at   39  2
       a =  7.000      CL =  1.5760
      Cm = -0.1337     CD =  0.02083   =>   CDf =  0.00792    CDp =  0.01290

 Side 1  free  transition at x/c =  0.4367   57
 Side 2  free  transition at x/c =  0.3433   39

   6   rms: 0.4592E-02   max: 0.8820E-01   C at   39  2
       a =  7.000      CL =  1.5761
      Cm = -0.1337     CD =  0.02083   =>   CDf =  0.00788    CDp =  0.01295

 Side 1  free  transition at x/c =  0.4367   57
 Side 2  free  transition at x/c =  0.3411   39

   7   rms: 0.4501E-04   max: -.7262E-03   D at   41  2
       a =  7.000      CL =  1.5761
      Cm = -0.1337     CD =  0.02083   =>   CDf =  0.00789    CDp =  0.01294

 Point added to stored polar  1
 Point written to save file  000165M0.04.log                                 
 Dump file unspecified or not available
 Calculating wake trajectory ...
 Calculating source influence matrix ...

 Solving BL system ...

 Side 1  free  transition at x/c =  0.4367   57
 Side 2  free  transition at x/c =  0.3411   39

   1   rms: 0.4025E+00   max: -.7071E+01   C at   39  2   RLX: 0.071
       a =  8.000      CL =  1.5810
      Cm = -0.1335     CD =  0.02090   =>   CDf =  0.00764    CDp =  0.01326

 Side 1  free  transition at x/c =  0.4356   58
 Side 2  free  transition at x/c =  0.3569   39

   2   rms: 0.5903E+00   max: -.1021E+02   C at   39  2   RLX: 0.049
       a =  8.000      CL =  1.5851
      Cm = -0.1334     CD =  0.02097   =>   CDf =  0.00789    CDp =  0.01308

 Side 1  free  transition at x/c =  0.4349   58
 Side 2  free  transition at x/c =  0.3694   39

   3   rms: 0.2371E+00   max: -.2647E+01   C at   39  2   RLX: 0.189
       a =  8.000      CL =  1.6000
      Cm = -0.1330     CD =  0.02117   =>   CDf =  0.00789    CDp =  0.01328

 Side 1  free  transition at x/c =  0.4323   58
 Side 2 forced transition at x/c =  1.0001   73

   4   rms: 0.1980E+00   max: -.6571E+00   n at   62  2   RLX: 0.761
       a =  8.000      CL =  1.6672
      Cm = -0.1349     CD =  0.02111   =>   CDf =  0.00714    CDp =  0.01397

 Side 1  free  transition at x/c =  0.4250   57
 Side 2 forced transition at x/c =  1.0001   73

   5   rms: 0.4864E-01   max: 0.2034E+00   D at   85  1
       a =  8.000      CL =  1.6416
      Cm = -0.1286     CD =  0.02200   =>   CDf =  0.00723    CDp =  0.01477

 Side 1  free  transition at x/c =  0.4201   57
 Side 2 forced transition at x/c =  1.0001   73

   6   rms: 0.1018E-01   max: -.5123E-01   D at   82  2
       a =  8.000      CL =  1.6466
      Cm = -0.1295     CD =  0.02200   =>   CDf =  0.00713    CDp =  0.01487

 Side 1  free  transition at x/c =  0.4205   57
 Side 2 forced transition at x/c =  1.0001   73

   7   rms: 0.4237E-03   max: -.2696E-02   D at   82  2
       a =  8.000      CL =  1.6469
      Cm = -0.1296     CD =  0.02200   =>   CDf =  0.00711    CDp =  0.01489

 Side 1  free  transition at x/c =  0.4205   57
 Side 2 forced transition at x/c =  1.0001   73

   8   rms: 0.2242E-05   max: 0.1524E-04   C at   73  2
       a =  8.000      CL =  1.6469
      Cm = -0.1296     CD =  0.02200   =>   CDf =  0.00711    CDp =  0.01489

 Point added to stored polar  1
 Point written to save file  000165M0.04.log                                 
 Dump file unspecified or not available
 Calculating wake trajectory ...
 Calculating source influence matrix ...

 Solving BL system ...

 Side 1  free  transition at x/c =  0.4205   57
 Side 2 forced transition at x/c =  1.0001   73

   1   rms: 0.1395E+00   max: -.2525E+00   n at   57  2
       a =  9.000      CL =  1.7080
      Cm = -0.1241     CD =  0.02407   =>   CDf =  0.00689    CDp =  0.01718

 Side 1  free  transition at x/c =  0.4063   57
 Side 2 forced transition at x/c =  1.0001   72

   2   rms: 0.2639E-01   max: -.2056E+00   D at   57  1
       a =  9.000      CL =  1.6996
      Cm = -0.1233     CD =  0.02450   =>   CDf =  0.00716    CDp =  0.01734

 Side 1  free  transition at x/c =  0.4045   57
 Side 2 forced transition at x/c =  1.0001   72

   3   rms: 0.5855E-02   max: -.2762E-01   D at   82  1
       a =  9.000      CL =  1.7039
      Cm = -0.1239     CD =  0.02445   =>   CDf =  0.00710    CDp =  0.01735

 Side 1  free  transition at x/c =  0.4044   57
 Side 2 forced transition at x/c =  1.0001   72

   4   rms: 0.1749E-03   max: -.9356E-03   D at   82  1
       a =  9.000      CL =  1.7041
      Cm = -0.1240     CD =  0.02446   =>   CDf =  0.00711    CDp =  0.01735

 Side 1  free  transition at x/c =  0.4044   57
 Side 2 forced transition at x/c =  1.0001   72

   5   rms: 0.1534E-05   max: -.7304E-05   C at   72  2
       a =  9.000      CL =  1.7041
      Cm = -0.1240     CD =  0.02446   =>   CDf =  0.00711    CDp =  0.01735

 Point added to stored polar  1
 Point written to save file  000165M0.04.log                                 
 Dump file unspecified or not available
 Calculating wake trajectory ...
 Calculating source influence matrix ...

 Solving BL system ...

 Side 1  free  transition at x/c =  0.4044   57
 Side 2 forced transition at x/c =  1.0001   72

   1   rms: 0.1265E+00   max: 0.2187E+00   D at   81  2   RLX: 0.891
       a = 10.000      CL =  1.7502
      Cm = -0.1189     CD =  0.02697   =>   CDf =  0.00686    CDp =  0.02010

 Side 1  free  transition at x/c =  0.3909   57
 Side 2 forced transition at x/c =  1.0001   71

   2   rms: 0.2275E-01   max: -.1832E+00   D at   57  1
       a = 10.000      CL =  1.7480
      Cm = -0.1177     CD =  0.02774   =>   CDf =  0.00713    CDp =  0.02060

 Side 1  free  transition at x/c =  0.3882   57
 Side 2 forced transition at x/c =  1.0001   71

   3   rms: 0.8414E-02   max: -.3863E-01   D at   82  1
       a = 10.000      CL =  1.7545
      Cm = -0.1185     CD =  0.02754   =>   CDf =  0.00704    CDp =  0.02049

 Side 1  free  transition at x/c =  0.3882   57
 Side 2 forced transition at x/c =  1.0001   71

   4   rms: 0.2860E-03   max: -.1628E-02   D at   81  1
       a = 10.000      CL =  1.7547
      Cm = -0.1185     CD =  0.02755   =>   CDf =  0.00705    CDp =  0.02050

 Side 1  free  transition at x/c =  0.3882   57
 Side 2 forced transition at x/c =  1.0001   71

   5   rms: 0.3403E-05   max: -.1665E-04   D at   84  2
       a = 10.000      CL =  1.7547
      Cm = -0.1185     CD =  0.02755   =>   CDf =  0.00705    CDp =  0.02050

 Point added to stored polar  1
 Point written to save file  000165M0.04.log                                 
 Dump file unspecified or not available
 Calculating wake trajectory ...
 Calculating source influence matrix ...

 Solving BL system ...

 Side 1  free  transition at x/c =  0.3882   57
 Side 2 forced transition at x/c =  1.0001   71

   1   rms: 0.1231E+00   max: 0.2450E+00   D at   82  2   RLX: 0.782
       a = 11.000      CL =  1.7875
      Cm = -0.1140     CD =  0.03051   =>   CDf =  0.00678    CDp =  0.02372

 Side 1  free  transition at x/c =  0.3757   57
 Side 2 forced transition at x/c =  1.0001   70

   2   rms: 0.2846E-01   max: -.1640E+00   C at   57  1
       a = 11.000      CL =  1.7879
      Cm = -0.1121     CD =  0.03183   =>   CDf =  0.00708    CDp =  0.02475

 Side 1  free  transition at x/c =  0.3719   57
 Side 2 forced transition at x/c =  1.0001   70

   3   rms: 0.1207E-01   max: -.5623E-01   D at   81  1
       a = 11.000      CL =  1.7973
      Cm = -0.1131     CD =  0.03137   =>   CDf =  0.00694    CDp =  0.02444

 Side 1  free  transition at x/c =  0.3719   57
 Side 2 forced transition at x/c =  1.0001   70

   4   rms: 0.3934E-03   max: -.2225E-02   D at   80  1
       a = 11.000      CL =  1.7976
      Cm = -0.1132     CD =  0.03140   =>   CDf =  0.00695    CDp =  0.02445

 Side 1  free  transition at x/c =  0.3719   57
 Side 2 forced transition at x/c =  1.0001   70

   5   rms: 0.4915E-05   max: -.3715E-04   D at   79  2
       a = 11.000      CL =  1.7976
      Cm = -0.1132     CD =  0.03140   =>   CDf =  0.00695    CDp =  0.02445

 Point added to stored polar  1
 Point written to save file  000165M0.04.log                                 
 Dump file unspecified or not available
 Calculating wake trajectory ...
 Calculating source influence matrix ...

 Solving BL system ...

 Side 1  free  transition at x/c =  0.3719   57
 Side 2 forced transition at x/c =  1.0001   70

   1   rms: 0.1213E+00   max: 0.2690E+00   D at   82  2   RLX: 0.689
       a = 12.000      CL =  1.8193
      Cm = -0.1093     CD =  0.03484   =>   CDf =  0.00666    CDp =  0.02818

 Side 1  free  transition at x/c =  0.3562   57
 Side 2 forced transition at x/c =  1.0001   69

   2   rms: 0.4489E-01   max: -.2872E+00   D at   57  1
       a = 12.000      CL =  1.8036
      Cm = -0.1055     CD =  0.03766   =>   CDf =  0.00699    CDp =  0.03067

 Side 1  free  transition at x/c =  0.3511   57
 Side 2 forced transition at x/c =  1.0001   69

   3   rms: 0.1570E-01   max: -.7736E-01   D at   80  1
       a = 12.000      CL =  1.8134
      Cm = -0.1066     CD =  0.03725   =>   CDf =  0.00682    CDp =  0.03042

 Side 1  free  transition at x/c =  0.3505   57
 Side 2 forced transition at x/c =  1.0001   69

   4   rms: 0.2195E-02   max: -.8932E-02   D at   78  1
       a = 12.000      CL =  1.8151
      Cm = -0.1068     CD =  0.03720   =>   CDf =  0.00684    CDp =  0.03037

 Side 1  free  transition at x/c =  0.3503   57
 Side 2 forced transition at x/c =  1.0001   69

   5   rms: 0.7941E-04   max: -.4079E-03   D at   80  2
       a = 12.000      CL =  1.8152
      Cm = -0.1068     CD =  0.03721   =>   CDf =  0.00684    CDp =  0.03036

 Point added to stored polar  1
 Point written to save file  000165M0.04.log                                 
 Dump file unspecified or not available
 Calculating wake trajectory ...
 Calculating source influence matrix ...

 Solving BL system ...

 Side 1  free  transition at x/c =  0.3503   57
 Side 2 forced transition at x/c =  1.0001   69

   1   rms: 0.1363E+00   max: -.6795E+00   D at   58  1   RLX: 0.597
       a = 13.000      CL =  1.8263
      Cm = -0.1036     CD =  0.04101   =>   CDf =  0.00653    CDp =  0.03448

 MRCHDU: Convergence failed at  58  side 1    Res =  0.1239E+02
 MRCHDU: Convergence failed at  59  side 1    Res =  0.1255E+01
 MRCHDU: Convergence failed at  60  side 1    Res =  0.1372E+01
 MRCHDU: Convergence failed at  61  side 1    Res =  0.2367E+01
 MRCHDU: Convergence failed at  62  side 1    Res =  0.2820E+01
 MRCHDU: Convergence failed at  63  side 1    Res =  0.3369E+01
 MRCHDU: Convergence failed at  64  side 1    Res =  0.4127E+01
 MRCHDU: Convergence failed at  65  side 1    Res =  0.5291E+01
 MRCHDU: Convergence failed at  66  side 1    Res =  0.7203E+01
 MRCHDU: Convergence failed at  67  side 1    Res =  0.1218E+02
 MRCHDU: Convergence failed at  68  side 1    Res =  0.2956E+02
 MRCHDU: Convergence failed at  69  side 1    Res =  0.4412E+02
 MRCHDU: Convergence failed at  70  side 1    Res =  0.1220E+02
 MRCHDU: Convergence failed at  71  side 1    Res =  0.9519E+02
 MRCHDU: Convergence failed at  72  side 1    Res =  0.3943E+02
 MRCHDU: Convergence failed at  73  side 1    Res =  0.2602E+02
 MRCHDU: Convergence failed at  74  side 1    Res =  0.1202E+02
 MRCHDU: Convergence failed at  75  side 1    Res =  0.5120E+02
 MRCHDU: Convergence failed at  76  side 1    Res =  0.4899E+02
 MRCHDU: Convergence failed at  77  side 1    Res =  0.1217E+02
 MRCHDU: Convergence failed at  78  side 1    Res =  0.1552E+02
 MRCHDU: Convergence failed at  79  side 1    Res =  0.1111E+03
 MRCHDU: Convergence failed at  80  side 1    Res =  0.2416E+02
 MRCHDU: Convergence failed at  81  side 1    Res =  0.1160E+02
 MRCHDU: Convergence failed at  82  side 1    Res =  0.1382E+02
 MRCHDU: Convergence failed at  83  side 1    Res =  0.3120E+02
 MRCHDU: Convergence failed at  84  side 1    Res =  0.1679E+03
 MRCHDU: Convergence failed at  85  side 1    Res =  0.2417E+02
 MRCHDU: Convergence failed at  86  side 1    Res =  0.2272E+02
 MRCHDU: Convergence failed at  87  side 1    Res =  0.1067E+02
 MRCHDU: Convergence failed at  88  side 1    Res =  0.1002E+02
 MRCHDU: Convergence failed at  89  side 1    Res =  0.1601E+02
 MRCHDU: Convergence failed at  90  side 1    Res =  0.1558E+02
 MRCHDU: Convergence failed at  91  side 1    Res =  0.1696E+02
 MRCHDU: Convergence failed at  92  side 1    Res =  0.3928E+02
 MRCHDU: Convergence failed at  93  side 1    Res =  0.3592E+02
 MRCHDU: Convergence failed at  94  side 1    Res =  0.3480E+02
 MRCHDU: Convergence failed at  79  side 2    Res =  0.5418E+02
 Side 1  free  transition at x/c =  0.3375   57
 Side 2 forced transition at x/c =  1.0001   68

   2   rms: 0.1049E+01   max: 0.4883E+01   D at   94  1   RLX: 0.307
       a = 13.000      CL =  2.6297
      Cm = -0.4506     CD =  0.00958   =>   CDf =  0.00463    CDp =  0.00495

 MRCHDU: Convergence failed at  75  side 2    Res =  0.1106E+01
 Side 1  free  transition at x/c =  0.3147   57
 Side 2 forced transition at x/c =  1.0001   67

   3   rms: 0.3939E+00   max: 0.5113E+00   D at   76  2   RLX: 0.668
       a = 13.000      CL =  2.2444
      Cm = -0.2050     CD =  0.02082   =>   CDf =  0.00932    CDp =  0.01150

 Side 1  free  transition at x/c =  0.3126   58
 Side 2 forced transition at x/c =  1.0001   66

   4   rms: 0.2518E+00   max: 0.8130E+00   D at   75  2   RLX: 0.933
       a = 13.000      CL =  1.9864
      Cm = -0.1182     CD =  0.03218   =>   CDf =  0.00852    CDp =  0.02367

 MRCHDU: Convergence failed at  79  side 1    Res =  0.1467E+01
 MRCHDU: Convergence failed at  80  side 1    Res =  0.2077E+01
 MRCHDU: Convergence failed at  81  side 1    Res =  0.2272E+01
 MRCHDU: Convergence failed at  82  side 1    Res =  0.1145E+01
 MRCHDU: Convergence failed at  83  side 1    Res =  0.1657E+01
 Side 1  free  transition at x/c =  0.3140   57
 Side 2 forced transition at x/c =  1.0001   67

   5   rms: 0.1718E+00   max: 0.1309E+01   D at   83  1
       a = 13.000      CL =  1.9045
      Cm = -0.1074     CD =  0.03891   =>   CDf =  0.00728    CDp =  0.03163

 Side 1  free  transition at x/c =  0.3186   57
 Side 2 forced transition at x/c =  1.0001   67

   6   rms: 0.1732E+00   max: 0.1285E+01   D at   83  1
       a = 13.000      CL =  1.7876
      Cm = -0.1008     CD =  0.04973   =>   CDf =  0.00733    CDp =  0.04240

 Side 1  free  transition at x/c =  0.3299   57
 Side 2 forced transition at x/c =  1.0001   68

   7   rms: 0.5469E-01   max: -.3042E+00   D at   82  1
       a = 13.000      CL =  1.8301
      Cm = -0.1013     CD =  0.04319   =>   CDf =  0.00669    CDp =  0.03649

 Side 1  free  transition at x/c =  0.3234   56
 Side 2 forced transition at x/c =  1.0001   68

   8   rms: 0.1900E-01   max: 0.1205E+00   D at   76  1
       a = 13.000      CL =  1.8161
      Cm = -0.1013     CD =  0.04569   =>   CDf =  0.00684    CDp =  0.03886

 Side 1  free  transition at x/c =  0.3246   56
 Side 2 forced transition at x/c =  1.0001   68

   9   rms: 0.1820E-02   max: 0.2985E-01   D at   76  1
       a = 13.000      CL =  1.8153
      Cm = -0.1012     CD =  0.04566   =>   CDf =  0.00673    CDp =  0.03893

 Side 1  free  transition at x/c =  0.3244   56
 Side 2 forced transition at x/c =  1.0001   68

  10   rms: 0.3589E-04   max: 0.3868E-03   D at   80  2
       a = 13.000      CL =  1.8153
      Cm = -0.1012     CD =  0.04565   =>   CDf =  0.00673    CDp =  0.03892

 Point added to stored polar  1
 Point written to save file  000165M0.04.log                                 
 Dump file unspecified or not available
 Calculating wake trajectory ...
 Calculating source influence matrix ...

 Solving BL system ...

 Side 1  free  transition at x/c =  0.3244   56
 Side 2 forced transition at x/c =  1.0001   68

   1   rms: 0.1411E+00   max: 0.6325E+00   D at   74  1   RLX: 0.504
       a = 14.000      CL =  1.8055
      Cm = -0.0989     CD =  0.05199   =>   CDf =  0.00675    CDp =  0.04524

 Side 1  free  transition at x/c =  0.3122   55
 Side 2 forced transition at x/c =  1.0001   68

   2   rms: 0.6254E-01   max: -.2887E+00   C at   55  1
       a = 14.000      CL =  1.8047
      Cm = -0.0972     CD =  0.05712   =>   CDf =  0.00639    CDp =  0.05072

 Side 1  free  transition at x/c =  0.3000   56
 Side 2 forced transition at x/c =  1.0001   67

   3   rms: 0.1601E-01   max: -.1168E+00   D at   56  1
       a = 14.000      CL =  1.8123
      Cm = -0.0972     CD =  0.05545   =>   CDf =  0.00659    CDp =  0.04886

 Side 1  free  transition at x/c =  0.3011   56
 Side 2 forced transition at x/c =  1.0001   67

   4   rms: 0.3327E-02   max: -.1491E-01   D at   74  1
       a = 14.000      CL =  1.8147
      Cm = -0.0973     CD =  0.05539   =>   CDf =  0.00655    CDp =  0.04884

 Side 1  free  transition at x/c =  0.3008   56
 Side 2 forced transition at x/c =  1.0001   67

   5   rms: 0.2446E-03   max: -.1152E-02   D at   80  2
       a = 14.000      CL =  1.8149
      Cm = -0.0973     CD =  0.05541   =>   CDf =  0.00657    CDp =  0.04885

 Side 1  free  transition at x/c =  0.3008   56
 Side 2 forced transition at x/c =  1.0001   67

   6   rms: 0.1277E-04   max: -.7032E-04   D at   80  2
       a = 14.000      CL =  1.8149
      Cm = -0.0973     CD =  0.05541   =>   CDf =  0.00657    CDp =  0.04885

 Point added to stored polar  1
 Point written to save file  000165M0.04.log                                 
 Dump file unspecified or not available
 Calculating wake trajectory ...
 Calculating source influence matrix ...

 Solving BL system ...

 Side 1  free  transition at x/c =  0.3008   56
 Side 2 forced transition at x/c =  1.0001   67

   1   rms: 0.1295E+00   max: -.5741E+00   D at   57  1   RLX: 0.458
       a = 15.000      CL =  1.8133
      Cm = -0.0960     CD =  0.06080   =>   CDf =  0.00659    CDp =  0.05421

 Side 1  free  transition at x/c =  0.2892   55
 Side 2 forced transition at x/c =  1.0001   67

   2   rms: 0.7228E-01   max: 0.3668E+00   D at   73  1
       a = 15.000      CL =  1.8000
      Cm = -0.0949     CD =  0.06892   =>   CDf =  0.00653    CDp =  0.06239

 Side 1  free  transition at x/c =  0.2747   54
 Side 2 forced transition at x/c =  1.0001   67

   3   rms: 0.1279E-01   max: -.1311E+00   D at   54  1
       a = 15.000      CL =  1.8013
      Cm = -0.0943     CD =  0.06723   =>   CDf =  0.00647    CDp =  0.06077

 Side 1  free  transition at x/c =  0.2760   54
 Side 2 forced transition at x/c =  1.0001   67

   4   rms: 0.2675E-02   max: -.1152E-01   D at   72  1
       a = 15.000      CL =  1.8034
      Cm = -0.0944     CD =  0.06717   =>   CDf =  0.00640    CDp =  0.06077

 Side 1  free  transition at x/c =  0.2756   54
 Side 2 forced transition at x/c =  1.0001   67

   5   rms: 0.1553E-03   max: -.9729E-03   D at   81  2
       a = 15.000      CL =  1.8035
      Cm = -0.0944     CD =  0.06720   =>   CDf =  0.00641    CDp =  0.06079

 Side 1  free  transition at x/c =  0.2756   54
 Side 2 forced transition at x/c =  1.0001   67

   6   rms: 0.1067E-04   max: 0.2158E-03   D at    2  2
       a = 15.000      CL =  1.8035
      Cm = -0.0944     CD =  0.06720   =>   CDf =  0.00641    CDp =  0.06079

 Point added to stored polar  1
 Point written to save file  000165M0.04.log                                 
 Dump file unspecified or not available

.OPERva   c>  
 XFOIL   c>  
0.1
resp: 
 ===================================================
  XFOIL Version 6.97
  Copyright (C) 2000   Mark Drela, Harold Youngren

  This software comes with ABSOLUTELY NO WARRANTY,
    subject to the GNU General Public License.

  Caveat computor
 ===================================================

 File  xfoil.def  not found

   QUIT    Exit program

  .OPER    Direct operating point(s)
  .MDES    Complex mapping design routine
  .QDES    Surface speed design routine
  .GDES    Geometry design routine

   SAVE f  Write airfoil to labeled coordinate file
   PSAV f  Write airfoil to plain coordinate file
   ISAV f  Write airfoil to ISES coordinate file
   MSAV f  Write airfoil to MSES coordinate file
   REVE    Reverse written-airfoil node ordering
   DELI i  Change written-airfoil file delimiters

   LOAD f  Read buffer airfoil from coordinate file
   NACA i  Set NACA 4,5-digit airfoil and buffer airfoil
   INTE    Set buffer airfoil by interpolating two airfoils
   NORM    Buffer airfoil normalization toggle
   HALF    Halve the number of points in buffer airfoil
   XYCM rr Change CM reference location, currently  0.25000 0.00000

   BEND    Display structural properties of current airfoil

   PCOP    Set current-airfoil panel nodes directly from buffer airfoil points
   PANE    Set current-airfoil panel nodes ( 160 ) based on curvature
  .PPAR    Show/change paneling

  .PLOP    Plotting options

   WDEF f  Write  current-settings file
   RDEF f  Reread current-settings file
   NAME s  Specify new airfoil name
   NINC    Increment name version number

   Z       Zoom    | (available in all menus)
   U       Unzoom  | 

 XFOIL   c>   ...............................................

  G raphics-enable flag:        T
  S ize of plot object          10.00"
  A spect ratio of plot object   0.5500
  P age dimensions              11.00 x  8.50"
  M argins from page edges       0.00",  0.00"
  F ont size (relative)          0.0150
  W indow/screen size fraction   0.8000
  B lowup input method:        Cursor    
  O rientation of plot:        Landscape 
  C olor PostScript output?     F

      Option, Value   (or <Return>)    c>   ...............................................

  G raphics-enable flag:        F
  S ize of plot object          10.00"
  A spect ratio of plot object   0.5500
  P age dimensions              11.00 x  8.50"
  M argins from page edges       0.00",  0.00"
  F ont size (relative)          0.0150
  W indow/screen size fraction   0.8000
  B lowup input method:        Cursor    
  O rientation of plot:        Landscape 
  C olor PostScript output?     F

      Option, Value   (or <Return>)    c>  
 XFOIL   c>  
 Labeled airfoil file.  Name:  000165                                          

 Number of input coordinate points: 200
 Clockwise ordering
 Max thickness =     0.139723  at x =   0.194
 Max camber    =     0.111739  at x =   0.361

  LE  x,y  =  -0.00005   0.00170  |   Chord =   0.99993
  TE  x,y  =   0.99988   0.00005  |

 Current airfoil nodes set from buffer airfoil nodes ( 200 )

 XFOIL   c>  
 You are working with the buffer airfoil

.GDES   c>  
  i       x        y      angle
   2   0.9990   0.0004   -0.047
   3   0.9978   0.0009    0.036
   4   0.9961   0.0016   -0.006
   5   0.9938   0.0024    0.018
   6   0.9911   0.0035    0.022
   7   0.9880   0.0048    0.012
   8   0.9843   0.0062    0.027
   9   0.9801   0.0079    0.012
  10   0.9755   0.0097    0.029
  11   0.9704   0.0117    0.033
  12   0.9649   0.0139    0.037
  13   0.9589   0.0162    0.034
  14   0.9524   0.0188    0.047
  15   0.9455   0.0215    0.051
  16   0.9382   0.0243    0.047
  17   0.9304   0.0273    0.062
  18   0.9222   0.0305    0.073
  19   0.9135   0.0339    0.069
  20   0.9045   0.0373    0.080
  21   0.8951   0.0409    0.096
  22   0.8853   0.0447    0.102
  23   0.8751   0.0486    0.108
  24   0.8645   0.0525    0.121
  25   0.8536   0.0566    0.135
  26   0.8423   0.0608    0.144
  27   0.8307   0.0651    0.166
  28   0.8187   0.0695    0.169
  29   0.8065   0.0739    0.193
  30   0.7939   0.0784    0.206
  31   0.7810   0.0830    0.227
  32   0.7679   0.0876    0.241
  33   0.7545   0.0922    0.267
  34   0.7409   0.0969    0.285
  35   0.7270   0.1015    0.306
  36   0.7129   0.1061    0.334
  37   0.6986   0.1108    0.355
  38   0.6841   0.1153    0.384
  39   0.6694   0.1199    0.408
  40   0.6545   0.1243    0.436
  41   0.6395   0.1287    0.467
  42   0.6243   0.1330    0.500
  43   0.6091   0.1372    0.527
  44   0.5937   0.1412    0.568
  45   0.5782   0.1452    0.591
  46   0.5627   0.1489    0.630
  47   0.5471   0.1525    0.667
  48   0.5314   0.1560    0.698
  49   0.5157   0.1592    0.737
  50   0.5000   0.1622    0.776
  51   0.4843   0.1650    0.814
  52   0.4686   0.1676    0.846
  53   0.4529   0.1699    0.893
  54   0.4373   0.1720    0.924
  55   0.4218   0.1738    0.963
  56   0.4063   0.1753    1.004
  57   0.3909   0.1766    1.038
  58   0.3757   0.1776    1.079
  59   0.3605   0.1782    1.112
  60   0.3455   0.1786    1.153
  61   0.3306   0.1787    1.182
  62   0.3159   0.1785    1.226
  63   0.3014   0.1779    1.255
  64   0.2871   0.1771    1.287
  65   0.2730   0.1759    1.322
  66   0.2591   0.1745    1.359
  67   0.2455   0.1727    1.386
  68   0.2321   0.1707    1.420
  69   0.2190   0.1683    1.448
  70   0.2061   0.1657    1.486
  71   0.1935   0.1628    1.518
  72   0.1813   0.1596    1.546
  73   0.1693   0.1561    1.586
  74   0.1577   0.1524    1.627
  75   0.1464   0.1485    1.659
  76   0.1355   0.1443    1.703
  77   0.1249   0.1398    1.751
  78   0.1147   0.1352    1.805
  79   0.1049   0.1303    1.860
  80   0.0955   0.1253    1.912
  81   0.0865   0.1201    1.989
  82   0.0778   0.1147    2.068
  83   0.0696   0.1091    2.143
  84   0.0618   0.1034    2.238
  85   0.0545   0.0976    2.343
  86   0.0476   0.0916    2.457
  87   0.0411   0.0855    2.570
  88   0.0351   0.0793    2.712
  89   0.0296   0.0730    2.849
  90   0.0245   0.0667    2.995
  91   0.0199   0.0602    3.153
  92   0.0157   0.0537    3.325
  93   0.0120   0.0471    3.460
  94   0.0089   0.0405    3.636
  95   0.0062   0.0338    3.774
  96   0.0039   0.0271    3.899
  97   0.0022   0.0203    4.020
  98   0.0010   0.0136    4.094
  99   0.0002   0.0068    4.146
 100   0.0000   0.0000    9.977
 101   0.0002  -0.0018   15.042
 102   0.0010  -0.0035   13.272
 103   0.0022  -0.0052   11.200
 104   0.0039  -0.0068    9.216
 105   0.0062  -0.0083    7.651
 106   0.0089  -0.0096    6.375
 107   0.0120  -0.0107    5.368
 108   0.0157  -0.0116    4.601
 109   0.0199  -0.0123    3.942
 110   0.0245  -0.0127    3.404
 111   0.0296  -0.0129    2.956
 112   0.0351  -0.0128    2.566
 113   0.0411  -0.0124    2.224
 114   0.0476  -0.0118    1.924
 115   0.0545  -0.0109    1.641
 116   0.0618  -0.0097    1.403
 117   0.0696  -0.0082    1.174
 118   0.0778  -0.0065    0.967
 119   0.0865  -0.0045    0.771
 120   0.0955  -0.0023    0.594
 121   0.1049   0.0000    0.428
 122   0.1147   0.0026    0.268
 123   0.1249   0.0053    0.129
 124   0.1355   0.0082   -0.021
 125   0.1464   0.0111   -0.138
 126   0.1577   0.0141   -0.262
 127   0.1693   0.0171   -0.377
 128   0.1813   0.0201   -0.478
 129   0.1935   0.0231   -0.578
 130   0.2061   0.0260   -0.660
 131   0.2190   0.0289   -0.745
 132   0.2321   0.0316   -0.809
 133   0.2455   0.0342   -0.872
 134   0.2591   0.0366   -0.928
 135   0.2730   0.0389   -0.960
 136   0.2871   0.0409   -1.000
 137   0.3014   0.0427   -1.019
 138   0.3159   0.0443   -1.033
 139   0.3306   0.0456   -1.031
 140   0.3455   0.0466   -1.030
 141   0.3605   0.0474   -1.013
 142   0.3757   0.0480   -0.987
 143   0.3909   0.0483   -0.961
 144   0.4063   0.0483   -0.915
 145   0.4218   0.0481   -0.880
 146   0.4373   0.0476   -0.821
 147   0.4529   0.0469   -0.770
 148   0.4686   0.0460   -0.710
 149   0.4843   0.0449   -0.653
 150   0.5000   0.0437   -0.587
 151   0.5157   0.0422   -0.522
 152   0.5314   0.0407   -0.456
 153   0.5471   0.0389   -0.388
 154   0.5627   0.0371   -0.324
 155   0.5782   0.0353   -0.263
 156   0.5937   0.0333   -0.197
 157   0.6091   0.0313   -0.140
 158   0.6243   0.0293   -0.078
 159   0.6395   0.0273   -0.025
 160   0.6545   0.0253    0.029
 161   0.6694   0.0233    0.075
 162   0.6841   0.0213    0.117
 163   0.6986   0.0195    0.167
 164   0.7129   0.0176    0.197
 165   0.7270   0.0159    0.230
 166   0.7409   0.0142    0.263
 167   0.7545   0.0127    0.288
 168   0.7679   0.0112    0.307
 169   0.7810   0.0098    0.318
 170   0.7939   0.0086    0.341
 171   0.8065   0.0074    0.343
 172   0.8187   0.0063    0.352
 173   0.8307   0.0054    0.352
 174   0.8423   0.0045    0.348
 175   0.8536   0.0037    0.346
 176   0.8645   0.0031    0.344
 177   0.8751   0.0025    0.332
 178   0.8853   0.0020    0.314
 179   0.8951   0.0015    0.312
 180   0.9045   0.0011    0.287
 181   0.9135   0.0008    0.279
 182   0.9222   0.0006    0.263
 183   0.9304   0.0004    0.246
 184   0.9382   0.0002    0.219
 185   0.9455   0.0001    0.213
 186   0.9524   0.0000    0.196
 187   0.9589  -0.0001    0.168
 188   0.9649  -0.0001    0.165
 189   0.9704  -0.0001    0.138
 190   0.9755  -0.0001    0.128
 191   0.9801  -0.0001    0.102
 192   0.9843  -0.0001    0.098
 193   0.9880  -0.0001    0.092
 194   0.9911  -0.0001    0.062
 195   0.9938  -0.0001    0.063
 196   0.9961  -0.0000    0.066
 197   0.9978  -0.0000   -0.020
 198   0.9990  -0.0000    0.108
 199   0.9998  -0.0000   -0.155

 Maximum panel corner angle = 15.042   at  i,x,y  = 101   0.0002  -0.0018

 Enter corner angle criterion for refinement (deg):   7.521
 Enter type of spline parameter (1=uniform, 2=arclength):   1
 Enter refinement x limits:  -0.10000   1.10000
 Number of points added:           12
 Max thickness =     0.139658  at x =   0.194
 Max camber    =     0.112946  at x =   0.361

 Maximum panel corner angle = 13.857   at  i,x,y  = 103   0.0001  -0.0015

.GDES   c>  
 Buffer airfoil is not identical to current airfoil

 XFOIL   c>  
 Blunt trailing edge.  Gap =  0.00027

 Paneling parameters used...
   Number of panel nodes       160
   Panel bunching parameter    1.000
   TE/LE panel density ratio   0.150
   Refined-area/LE panel density ratio    0.200
   Top    side refined area x/c limits  1.000 1.000
   Bottom side refined area x/c limits  1.000 1.000

 XFOIL   c>  
.OPERi   c>   Current iteration limit:          20

Enter new iteration limit   i>  
Enter new iteration limit   i>  
Enter new iteration limit   i>  
.OPERi   c>  
 M  =    0.0000
 Re =  0.3000E+06

.OPERv   c>  
 Sonic Cp =    -66.86      Sonic Q/Qinf =     9.138


.OPERv   c>  
 Polar  1 newly created for accumulation
 Airfoil archived with polar: 000165                                          

Enter  polar save filename  OR  <return> for no file   s>  
 New polar save file available

Enter  polar dump filename  OR  <return> for no file   s>  
 Polar dump file will NOT be written

 Polar accumulation enabled

.OPERva   c>   Calculating unit vorticity distributions ...
 Calculating wake trajectory ...
 Calculating source influence matrix ...

 Solving BL system ...

 Initializing BL ...
    side            1  ...
 MRCHUE: Inverse mode at  49     Hk =   4.196
 MRCHUE: Inverse mode at  50     Hk =   5.011
 MRCHUE: Inverse mode at  51     Hk =   5.807
 MRCHUE: Inverse mode at  52     Hk =   6.591
 MRCHUE: Inverse mode at  53     Hk =   7.366
 MRCHUE: Inverse mode at  54     Hk =   8.136
 MRCHUE: Inverse mode at  55     Hk =   8.901
 MRCHUE: Inverse mode at  56     Hk =   7.363
 MRCHUE: Inverse mode at  57     Hk =   4.583
 MRCHUE: Inverse mode at  58     Hk =   2.916
 MRCHUE: Inverse mode at  82     Hk =   2.500
 MRCHUE: Inverse mode at  83     Hk =   2.500
 MRCHUE: Convergence failed at  84  side 1    Res =  0.1572E+02
    side            2  ...
 MRCHUE: Inverse mode at  23     Hk =   4.056
 MRCHUE: Inverse mode at  24     Hk =   4.657
 MRCHUE: Inverse mode at  25     Hk =   5.282
 MRCHUE: Inverse mode at  26     Hk =   5.938
 MRCHUE: Inverse mode at  27     Hk =   6.637
 MRCHUE: Inverse mode at  28     Hk =   7.386
 MRCHUE: Inverse mode at  29     Hk =   8.190
 MRCHUE: Inverse mode at  30     Hk =   9.046
 MRCHUE: Inverse mode at  31     Hk =   9.941
 MRCHUE: Inverse mode at  32     Hk =   5.514
 MRCHUE: Inverse mode at  33     Hk =   3.588
 MRCHUE: Inverse mode at  34     Hk =   2.500
 MRCHUE: Convergence failed at  78  side 2    Res =  0.4006E+01
 MRCHUE: Convergence failed at  80  side 2    Res =  0.1280E+00

 MRCHDU: Convergence failed at  84  side 1    Res =  0.1335E+02
 MRCHDU: Convergence failed at  78  side 2    Res =  0.1202E+01
 Side 1  free  transition at x/c =  0.4932   56
 Side 2  free  transition at x/c =  0.1504   32

   1   rms: 0.7844E+00   max: 0.3835E+01   D at   81  2   RLX: 0.391
       a =  2.000      CL =  1.3345
      Cm = -0.1899     CD =  0.00602   =>   CDf =  0.00846    CDp = -0.00244

 MRCHDU: Convergence failed at  32  side 2    Res =  0.2560E+02
 MRCHDU: Convergence failed at  33  side 2    Res =  0.7497E+01
 MRCHDU: Convergence failed at  34  side 2    Res =  0.1253E+02
 MRCHDU: Convergence failed at  35  side 2    Res =  0.2513E+04
 MRCHDU: Convergence failed at  36  side 2    Res =  0.4153E+02
 MRCHDU: Convergence failed at  37  side 2    Res =  0.4426E+02
 MRCHDU: Convergence failed at  38  side 2    Res =  0.3409E+02
 MRCHDU: Convergence failed at  39  side 2    Res =  0.3028E+02
 MRCHDU: Convergence failed at  40  side 2    Res =  0.3273E+02
 MRCHDU: Convergence failed at  41  side 2    Res =  0.3479E+02
 MRCHDU: Convergence failed at  42  side 2    Res =  0.3846E+02
 MRCHDU: Convergence failed at  43  side 2    Res =  0.4162E+02
 MRCHDU: Convergence failed at  44  side 2    Res =  0.5165E+02
 MRCHDU: Convergence failed at  45  side 2    Res =  0.3145E+02
 MRCHDU: Convergence failed at  46  side 2    Res =  0.3404E+02
 MRCHDU: Convergence failed at  47  side 2    Res =  0.3896E+02
 MRCHDU: Convergence failed at  48  side 2    Res =  0.4451E+02
 MRCHDU: Convergence failed at  49  side 2    Res =  0.5735E+02
 MRCHDU: Convergence failed at  50  side 2    Res =  0.7304E+02
 MRCHDU: Convergence failed at  51  side 2    Res =  0.9850E+02
 MRCHDU: Convergence failed at  52  side 2    Res =  0.2296E+03
 MRCHDU: Convergence failed at  53  side 2    Res =  0.1551E+03
 MRCHDU: Convergence failed at  54  side 2    Res =  0.6228E+02
 MRCHDU: Convergence failed at  55  side 2    Res =  0.5075E+02
 MRCHDU: Convergence failed at  56  side 2    Res =  0.5668E+02
 MRCHDU: Convergence failed at  57  side 2    Res =  0.2385E+03
 MRCHDU: Convergence failed at  58  side 2    Res =  0.2942E+02
 MRCHDU: Convergence failed at  59  side 2    Res =  0.1041E+02
 MRCHDU: Convergence failed at  60  side 2    Res =  0.5347E+01
 MRCHDU: Convergence failed at  61  side 2    Res =  0.3520E+01
 MRCHDU: Convergence failed at  62  side 2    Res =  0.1275E+02
 MRCHDU: Convergence failed at  63  side 2    Res =  0.1586E+02
 MRCHDU: Convergence failed at  64  side 2    Res =  0.1142E+03
 Side 1  free  transition at x/c =  0.5007   56
 Side 2  free  transition at x/c =  0.1479   31

   2   rms: 0.6360E+00   max: 0.5339E+01   T at   31  2   RLX: 0.171
       a =  2.000      CL =  1.1583
      Cm = -0.1594     CD =  0.00805   =>   CDf =  0.00697    CDp =  0.00107

 MRCHDU: Convergence failed at  43  side 2    Res =  0.2782E+00
 MRCHDU: Convergence failed at  44  side 2    Res =  0.3235E+00
 MRCHDU: Convergence failed at  45  side 2    Res =  0.3701E+00
 MRCHDU: Convergence failed at  46  side 2    Res =  0.4174E+00
 MRCHDU: Convergence failed at  47  side 2    Res =  0.4618E+00
 MRCHDU: Convergence failed at  48  side 2    Res =  0.5044E+00
 MRCHDU: Convergence failed at  49  side 2    Res =  0.5438E+00
 MRCHDU: Convergence failed at  50  side 2    Res =  0.5789E+00
 MRCHDU: Convergence failed at  51  side 2    Res =  0.6122E+00
 MRCHDU: Convergence failed at  52  side 2    Res =  0.6436E+00
 MRCHDU: Convergence failed at  53  side 2    Res =  0.6734E+00
 MRCHDU: Convergence failed at  54  side 2    Res =  0.7016E+00
 MRCHDU: Convergence failed at  55  side 2    Res =  0.7283E+00
 MRCHDU: Convergence failed at  56  side 2    Res =  0.7529E+00
 MRCHDU: Convergence failed at  57  side 2    Res =  0.7760E+00
 MRCHDU: Convergence failed at  58  side 2    Res =  0.7979E+00
 MRCHDU: Convergence failed at  59  side 2    Res =  0.8187E+00
 MRCHDU: Convergence failed at  60  side 2    Res =  0.8382E+00
 MRCHDU: Convergence failed at  61  side 2    Res =  0.8562E+00
 MRCHDU: Convergence failed at  62  side 2    Res =  0.8725E+00
 MRCHDU: Convergence failed at  63  side 2    Res =  0.8866E+00
 MRCHDU: Convergence failed at  64  side 2    Res =  0.8982E+00
 MRCHDU: Convergence failed at  65  side 2    Res =  0.1015E+01
 MRCHDU: Convergence failed at  66  side 2    Res =  0.1002E+01
 MRCHDU: Convergence failed at  67  side 2    Res =  0.1069E+01
 MRCHDU: Convergence failed at  68  side 2    Res =  0.1119E+01
 MRCHDU: Convergence failed at  69  side 2    Res =  0.1152E+01
 MRCHDU: Convergence failed at  70  side 2    Res =  0.1170E+01
 MRCHDU: Convergence failed at  71  side 2    Res =  0.1172E+01
 MRCHDU: Convergence failed at  72  side 2    Res =  0.1159E+01
 MRCHDU: Convergence failed at  73  side 2    Res =  0.1130E+01
 MRCHDU: Convergence failed at  74  side 2    Res =  0.1084E+01
 MRCHDU: Convergence failed at  75  side 2    Res =  0.1011E+01
 MRCHDU: Convergence failed at  76  side 2    Res =  0.8794E+00
 MRCHDU: Convergence failed at  77  side 2    Res =  0.7697E+00
 MRCHDU: Convergence failed at  78  side 2    Res =  0.7448E+00
 Side 1  free  transition at x/c =  0.5041   57
 Side 2  free  transition at x/c =  0.1339   30

   3   rms: 0.1028E+01   max: 0.1218E+02   T at   30  2   RLX: 0.071
       a =  2.000      CL =  1.3295
      Cm = -0.2167     CD =  0.01345   =>   CDf =  0.00578    CDp =  0.00767

 Side 1  free  transition at x/c =  0.5048   57
 Side 2  free  transition at x/c =  0.1253   30

   4   rms: 0.9223E+00   max: -.3396E+01   D at   80  2   RLX: 0.147
       a =  2.000      CL =  1.2644
      Cm = -0.2246     CD =  0.01957   =>   CDf =  0.00582    CDp =  0.01375

 MRCHDU: Convergence failed at  81  side 2    Res =  0.1521E+00
 MRCHDU: Convergence failed at  82  side 2    Res =  0.4690E+00
 MRCHDU: Convergence failed at  83  side 2    Res =  0.6990E+00
 MRCHDU: Convergence failed at  84  side 2    Res =  0.8171E+00
 MRCHDU: Convergence failed at  85  side 2    Res =  0.8847E+00
 MRCHDU: Convergence failed at  86  side 2    Res =  0.9294E+00
 MRCHDU: Convergence failed at  87  side 2    Res =  0.9597E+00
 MRCHDU: Convergence failed at  88  side 2    Res =  0.9801E+00
 MRCHDU: Convergence failed at  89  side 2    Res =  0.9938E+00
 MRCHDU: Convergence failed at  90  side 2    Res =  0.1001E+01
 MRCHDU: Convergence failed at  91  side 2    Res =  0.1004E+01
 MRCHDU: Convergence failed at  92  side 2    Res =  0.1000E+01
 MRCHDU: Convergence failed at  93  side 2    Res =  0.9910E+00
 MRCHDU: Convergence failed at  94  side 2    Res =  0.9758E+00
 MRCHDU: Convergence failed at  95  side 2    Res =  0.9549E+00
 MRCHDU: Convergence failed at  96  side 2    Res =  0.9283E+00
 MRCHDU: Convergence failed at  97  side 2    Res =  0.8955E+00
 MRCHDU: Convergence failed at  98  side 2    Res =  0.8558E+00
 MRCHDU: Convergence failed at  99  side 2    Res =  0.8087E+00
 MRCHDU: Convergence failed at 100  side 2    Res =  0.7537E+00
 MRCHDU: Convergence failed at 101  side 2    Res =  0.6906E+00
 Side 1  free  transition at x/c =  0.5074   56
 Side 2  free  transition at x/c =  0.1206   30

   5   rms: 0.1032E+01   max: 0.1169E+02   T at   30  2   RLX: 0.065
       a =  2.000      CL =  1.2250
      Cm = -0.2213     CD =  0.01760   =>   CDf =  0.00552    CDp =  0.01207

 Side 1  free  transition at x/c =  0.5100   55
 Side 2  free  transition at x/c =  0.1125   31

   6   rms: 0.3431E+01   max: 0.4186E+02   D at    2  2   RLX: 0.024
       a =  2.000      CL =  1.1807
      Cm = -0.2187     CD =  0.03151   =>   CDf =  0.00538    CDp =  0.02613

 Side 1  free  transition at x/c =  0.5120   55
 Side 2  free  transition at x/c =  0.1107   31

   7   rms: 0.3271E+01   max: -.1301E+02   D at   32  2   RLX: 0.038
       a =  2.000      CL =  1.1000
      Cm = -0.2185     CD =  0.02727   =>   CDf =  0.00543    CDp =  0.02184

 Side 1  free  transition at x/c =  0.5156   54
 Side 2  free  transition at x/c =  0.1092   32

   8   rms: 0.2969E+02   max: -.1556E+03   D at   33  2   RLX: 0.003
       a =  2.000      CL =  1.0556
      Cm = -0.2251     CD =  0.02435   =>   CDf =  0.00538    CDp =  0.01897

 Side 1  free  transition at x/c =  0.5176   53
 Side 2  free  transition at x/c =  0.1076   32

   9   rms: 0.1597E+01   max: 0.1963E+02   D at    2  2   RLX: 0.056
       a =  2.000      CL =  1.0097
      Cm = -0.2186     CD =  0.02389   =>   CDf =  0.00533    CDp =  0.01856

 Side 1  free  transition at x/c =  0.5190   53
 Side 2  free  transition at x/c =  0.0985   32

  10   rms: 0.1564E+02   max: 0.7682E+02   T at   32  2   RLX: 0.008
       a =  2.000      CL =  0.9509
      Cm = -0.2220     CD =  0.02024   =>   CDf =  0.00534    CDp =  0.01490

 MRCHDU: Convergence failed at  32  side 2    Res =  0.2889E+01
 MRCHDU: Convergence failed at  33  side 2    Res =  0.2982E+02
 MRCHDU: Convergence failed at  34  side 2    Res =  0.4751E+01
 MRCHDU: Convergence failed at  35  side 2    Res =  0.4836E+01
 MRCHDU: Convergence failed at  36  side 2    Res =  0.7384E+01
 MRCHDU: Convergence failed at  37  side 2    Res =  0.6616E+01
 MRCHDU: Convergence failed at  38  side 2    Res =  0.2635E+02
 MRCHDU: Convergence failed at  39  side 2    Res =  0.2247E+02
 MRCHDU: Convergence failed at  40  side 2    Res =  0.9320E+01
 MRCHDU: Convergence failed at  41  side 2    Res =  0.2077E+02
 MRCHDU: Convergence failed at  42  side 2    Res =  0.2122E+02
 MRCHDU: Convergence failed at  43  side 2    Res =  0.2014E+02
 MRCHDU: Convergence failed at  44  side 2    Res =  0.2858E+02
 MRCHDU: Convergence failed at  45  side 2    Res =  0.2930E+02
 MRCHDU: Convergence failed at  46  side 2    Res =  0.1790E+02
 MRCHDU: Convergence failed at  47  side 2    Res =  0.2349E+02
 MRCHDU: Convergence failed at  48  side 2    Res =  0.1984E+02
 MRCHDU: Convergence failed at  49  side 2    Res =  0.2394E+02
 MRCHDU: Convergence failed at  50  side 2    Res =  0.5429E+02
 MRCHDU: Convergence failed at  51  side 2    Res =  0.4716E+02
 MRCHDU: Convergence failed at  52  side 2    Res =  0.1620E+03
 MRCHDU: Convergence failed at  53  side 2    Res =  0.1898E+03
 MRCHDU: Convergence failed at  54  side 2    Res =  0.8185E+02
 MRCHDU: Convergence failed at  55  side 2    Res =  0.7085E+02
 MRCHDU: Convergence failed at  56  side 2    Res =  0.4813E+02
 MRCHDU: Convergence failed at  57  side 2    Res =  0.2586E+02
 MRCHDU: Convergence failed at  58  side 2    Res =  0.2670E+02
 MRCHDU: Convergence failed at  59  side 2    Res =  0.1694E+02
 MRCHDU: Convergence failed at  60  side 2    Res =  0.1909E+02
 MRCHDU: Convergence failed at  61  side 2    Res =  0.3108E+02
 MRCHDU: Convergence failed at  62  side 2    Res =  0.4713E+02
 MRCHDU: Convergence failed at  63  side 2    Res =  0.1195E+03
 MRCHDU: Convergence failed at  64  side 2    Res =  0.1989E+03
 MRCHDU: Convergence failed at  65  side 2    Res =  0.8805E+03
 MRCHDU: Convergence failed at  66  side 2    Res =  0.2380E+03
 MRCHDU: Convergence failed at  67  side 2    Res =  0.8976E+02
 MRCHDU: Convergence failed at  68  side 2    Res =  0.1020E+03
 MRCHDU: Convergence failed at  69  side 2    Res =  0.1182E+03
 MRCHDU: Convergence failed at  70  side 2    Res =  0.1416E+03
 MRCHDU: Convergence failed at  71  side 2    Res =  0.1777E+03
 MRCHDU: Convergence failed at  72  side 2    Res =  0.2386E+03
 MRCHDU: Convergence failed at  73  side 2    Res =  0.3578E+03
 MRCHDU: Convergence failed at  74  side 2    Res =  0.1102E+03
 MRCHDU: Convergence failed at  75  side 2    Res =  0.9447E+02
 MRCHDU: Convergence failed at  76  side 2    Res =  0.6719E+02
 MRCHDU: Convergence failed at  77  side 2    Res =  0.3470E+02
 MRCHDU: Convergence failed at  78  side 2    Res =  0.3270E+02
 MRCHDU: Convergence failed at  79  side 2    Res =  0.4961E+02
 MRCHDU: Convergence failed at  80  side 2    Res =  0.3186E+02
 MRCHDU: Convergence failed at  81  side 2    Res =  0.2756E+02
 MRCHDU: Convergence failed at  82  side 2    Res =  0.5033E+02
 Side 1  free  transition at x/c =  0.5220   54
 Side 2  free  transition at x/c =  0.0936   31

  11   rms: 0.7270E+00   max: 0.1927E+01   D at   42  2   RLX: 0.310
       a =  2.000      CL =  0.4311
      Cm = -0.0007     CD =  0.00950   =>   CDf =  0.00487    CDp =  0.00463

 MRCHDU: Convergence failed at  40  side 2    Res =  0.2305E+00
 MRCHDU: Convergence failed at  42  side 2    Res =  0.1167E+00
 MRCHDU: Convergence failed at  43  side 2    Res =  0.1106E+00
 MRCHDU: Convergence failed at  44  side 2    Res =  0.1064E+00
 MRCHDU: Convergence failed at  45  side 2    Res =  0.1041E+00
 MRCHDU: Convergence failed at  46  side 2    Res =  0.1037E+00
 MRCHDU: Convergence failed at  47  side 2    Res =  0.1048E+00
 MRCHDU: Convergence failed at  48  side 2    Res =  0.1073E+00
 MRCHDU: Convergence failed at  49  side 2    Res =  0.1112E+00
 MRCHDU: Convergence failed at  50  side 2    Res =  0.1163E+00
 MRCHDU: Convergence failed at  51  side 2    Res =  0.1225E+00
 MRCHDU: Convergence failed at  52  side 2    Res =  0.1307E+00
 MRCHDU: Convergence failed at  53  side 2    Res =  0.1382E+00
 MRCHDU: Convergence failed at  54  side 2    Res =  0.1466E+00
 MRCHDU: Convergence failed at  55  side 2    Res =  0.1557E+00
 MRCHDU: Convergence failed at  56  side 2    Res =  0.1654E+00
 MRCHDU: Convergence failed at  57  side 2    Res =  0.1755E+00
 MRCHDU: Convergence failed at  58  side 2    Res =  0.1859E+00
 MRCHDU: Convergence failed at  59  side 2    Res =  0.1966E+00
 MRCHDU: Convergence failed at  60  side 2    Res =  0.2074E+00
 MRCHDU: Convergence failed at  61  side 2    Res =  0.2180E+00
 MRCHDU: Convergence failed at  62  side 2    Res =  0.2285E+00
 MRCHDU: Convergence failed at  63  side 2    Res =  0.2390E+00
 MRCHDU: Convergence failed at  64  side 2    Res =  0.2492E+00
[...]

 Side 1  free  transition at x/c =  0.4350   57
 Side 2  free  transition at x/c =  0.3241   38

   4   rms: 0.2293E-01   max: -.2635E+00   C at   38  2
       a =  7.000      CL =  1.5783
      Cm = -0.1331     CD =  0.02116   =>   CDf =  0.00797    CDp =  0.01319

 Side 1  free  transition at x/c =  0.4351   57
 Side 2  free  transition at x/c =  0.3311   38

   5   rms: 0.9299E-03   max: -.9919E-02   D at   40  2
       a =  7.000      CL =  1.5791
      Cm = -0.1332     CD =  0.02116   =>   CDf =  0.00791    CDp =  0.01326

 Side 1  free  transition at x/c =  0.4351   57
 Side 2  free  transition at x/c =  0.3312   38

   6   rms: 0.2821E-04   max: 0.3963E-03   C at   38  2
       a =  7.000      CL =  1.5791
      Cm = -0.1332     CD =  0.02116   =>   CDf =  0.00791    CDp =  0.01326

 Point added to stored polar  1
 Point written to save file  000165M0.1.log                                  
 Dump file unspecified or not available
 Calculating wake trajectory ...
 Calculating source influence matrix ...

 Solving BL system ...

 Side 1  free  transition at x/c =  0.4351   57
 Side 2  free  transition at x/c =  0.3312   38

   1   rms: 0.2823E+00   max: -.4384E+01   C at   38  2   RLX: 0.114
       a =  8.000      CL =  1.5886
      Cm = -0.1329     CD =  0.02128   =>   CDf =  0.00766    CDp =  0.01362

 Side 1  free  transition at x/c =  0.4333   58
 Side 2  free  transition at x/c =  0.3517   38

   2   rms: 0.2513E+00   max: 0.2543E+01   T at    2  1   RLX: 0.247
       a =  8.000      CL =  1.6112
      Cm = -0.1329     CD =  0.02159   =>   CDf =  0.00794    CDp =  0.01364

 Side 1  free  transition at x/c =  0.4302   57
 Side 2 forced transition at x/c =  1.0001   73

   3   rms: 0.1315E+00   max: -.4320E+00   D at   37  2
       a =  8.000      CL =  1.6260
      Cm = -0.1253     CD =  0.02276   =>   CDf =  0.00718    CDp =  0.01557

 Side 1  free  transition at x/c =  0.4178   57
 Side 2 forced transition at x/c =  1.0001   73

   4   rms: 0.3519E-01   max: -.1525E+00   D at   83  2
       a =  8.000      CL =  1.6469
      Cm = -0.1286     CD =  0.02237   =>   CDf =  0.00715    CDp =  0.01523

 Side 1  free  transition at x/c =  0.4189   57
 Side 2 forced transition at x/c =  1.0001   73

   5   rms: 0.2978E-02   max: -.1925E-01   D at   83  2
       a =  8.000      CL =  1.6484
      Cm = -0.1288     CD =  0.02241   =>   CDf =  0.00709    CDp =  0.01532

 Side 1  free  transition at x/c =  0.4188   57
 Side 2 forced transition at x/c =  1.0001   73

   6   rms: 0.4351E-04   max: 0.2877E-03   D at   33  2
       a =  8.000      CL =  1.6484
      Cm = -0.1288     CD =  0.02242   =>   CDf =  0.00710    CDp =  0.01532

 Point added to stored polar  1
 Point written to save file  000165M0.1.log                                  
 Dump file unspecified or not available
 Calculating wake trajectory ...
 Calculating source influence matrix ...

 Solving BL system ...

 Side 1  free  transition at x/c =  0.4188   57
 Side 2 forced transition at x/c =  1.0001   73

   1   rms: 0.1438E+00   max: -.2789E+00   n at   51  2
       a =  9.000      CL =  1.7150
      Cm = -0.1240     CD =  0.02443   =>   CDf =  0.00687    CDp =  0.01756

 Side 1  free  transition at x/c =  0.4053   57
 Side 2 forced transition at x/c =  1.0001   72

   2   rms: 0.2784E-01   max: -.2128E+00   D at   57  1
       a =  9.000      CL =  1.6992
      Cm = -0.1223     CD =  0.02509   =>   CDf =  0.00711    CDp =  0.01797

 Side 1  free  transition at x/c =  0.4025   57
 Side 2 forced transition at x/c =  1.0001   72

   3   rms: 0.7708E-02   max: -.3889E-01   D at   82  1
       a =  9.000      CL =  1.7042
      Cm = -0.1230     CD =  0.02501   =>   CDf =  0.00708    CDp =  0.01793

 Side 1  free  transition at x/c =  0.4026   57
 Side 2 forced transition at x/c =  1.0001   72

   4   rms: 0.2491E-03   max: -.1382E-02   D at   82  1
       a =  9.000      CL =  1.7044
      Cm = -0.1230     CD =  0.02502   =>   CDf =  0.00709    CDp =  0.01793

 Side 1  free  transition at x/c =  0.4026   57
 Side 2 forced transition at x/c =  1.0001   72

   5   rms: 0.2955E-05   max: -.1207E-04   D at   85  2
       a =  9.000      CL =  1.7044
      Cm = -0.1230     CD =  0.02502   =>   CDf =  0.00709    CDp =  0.01793

 Point added to stored polar  1
 Point written to save file  000165M0.1.log                                  
 Dump file unspecified or not available
 Calculating wake trajectory ...
 Calculating source influence matrix ...

 Solving BL system ...

 Side 1  free  transition at x/c =  0.4026   57
 Side 2 forced transition at x/c =  1.0001   72

   1   rms: 0.1279E+00   max: 0.2061E+00   D at   82  2   RLX: 0.870
       a = 10.000      CL =  1.7538
      Cm = -0.1186     CD =  0.02740   =>   CDf =  0.00684    CDp =  0.02056

 Side 1  free  transition at x/c =  0.3902   57
 Side 2 forced transition at x/c =  1.0001   71

   2   rms: 0.2384E-01   max: -.1861E+00   D at   57  1
       a = 10.000      CL =  1.7452
      Cm = -0.1165     CD =  0.02860   =>   CDf =  0.00709    CDp =  0.02151

 Side 1  free  transition at x/c =  0.3861   57
 Side 2 forced transition at x/c =  1.0001   71

   3   rms: 0.1146E-01   max: -.5733E-01   D at   81  1
       a = 10.000      CL =  1.7533
      Cm = -0.1174     CD =  0.02828   =>   CDf =  0.00702    CDp =  0.02126

 Side 1  free  transition at x/c =  0.3863   57
 Side 2 forced transition at x/c =  1.0001   71

   4   rms: 0.4716E-03   max: -.2610E-02   D at   81  1
       a = 10.000      CL =  1.7537
      Cm = -0.1175     CD =  0.02829   =>   CDf =  0.00702    CDp =  0.02127

 Side 1  free  transition at x/c =  0.3863   57
 Side 2 forced transition at x/c =  1.0001   71

   5   rms: 0.4940E-05   max: -.2947E-04   D at   80  2
       a = 10.000      CL =  1.7537
      Cm = -0.1175     CD =  0.02829   =>   CDf =  0.00702    CDp =  0.02127

 Point added to stored polar  1
 Point written to save file  000165M0.1.log                                  
 Dump file unspecified or not available
 Calculating wake trajectory ...
 Calculating source influence matrix ...

 Solving BL system ...

 Side 1  free  transition at x/c =  0.3863   57
 Side 2 forced transition at x/c =  1.0001   71

   1   rms: 0.1234E+00   max: 0.2315E+00   D at   82  2   RLX: 0.762
       a = 11.000      CL =  1.7893
      Cm = -0.1135     CD =  0.03109   =>   CDf =  0.00676    CDp =  0.02433

 Side 1  free  transition at x/c =  0.3749   57
 Side 2 forced transition at x/c =  1.0001   70

   2   rms: 0.3150E-01   max: -.1655E+00   C at   57  1
       a = 11.000      CL =  1.7827
      Cm = -0.1108     CD =  0.03301   =>   CDf =  0.00703    CDp =  0.02598

 Side 1  free  transition at x/c =  0.3696   57
 Side 2 forced transition at x/c =  1.0001   70

   3   rms: 0.1534E-01   max: -.7770E-01   D at   80  1
       a = 11.000      CL =  1.7942
      Cm = -0.1120     CD =  0.03236   =>   CDf =  0.00691    CDp =  0.02545

 Side 1  free  transition at x/c =  0.3699   57
 Side 2 forced transition at x/c =  1.0001   70

   4   rms: 0.9133E-03   max: -.4611E-02   D at   80  1
       a = 11.000      CL =  1.7950
      Cm = -0.1120     CD =  0.03238   =>   CDf =  0.00691    CDp =  0.02547

 Side 1  free  transition at x/c =  0.3699   57
 Side 2 forced transition at x/c =  1.0001   70

   5   rms: 0.1675E-04   max: -.1054E-03   D at   79  2
       a = 11.000      CL =  1.7950
      Cm = -0.1120     CD =  0.03238   =>   CDf =  0.00692    CDp =  0.02547

 Point added to stored polar  1
 Point written to save file  000165M0.1.log                                  
 Dump file unspecified or not available
 Calculating wake trajectory ...
 Calculating source influence matrix ...

 Solving BL system ...

 Side 1  free  transition at x/c =  0.3699   57
 Side 2 forced transition at x/c =  1.0001   70

   1   rms: 0.1209E+00   max: 0.4327E+00   T at   57  1   RLX: 0.671
       a = 12.000      CL =  1.8196
      Cm = -0.1086     CD =  0.03560   =>   CDf =  0.00663    CDp =  0.02898

 Side 1  free  transition at x/c =  0.3570   57
 Side 2 forced transition at x/c =  1.0001   69

   2   rms: 0.4731E-01   max: -.2371E+00   D at   57  1
       a = 12.000      CL =  1.8014
      Cm = -0.1047     CD =  0.03902   =>   CDf =  0.00694    CDp =  0.03208

 Side 1  free  transition at x/c =  0.3496   57
 Side 2 forced transition at x/c =  1.0001   69

   3   rms: 0.2141E-01   max: -.1280E+00   D at   57  1
       a = 12.000      CL =  1.8138
      Cm = -0.1059     CD =  0.03818   =>   CDf =  0.00681    CDp =  0.03137

 Side 1  free  transition at x/c =  0.3497   57
 Side 2 forced transition at x/c =  1.0001   69

   4   rms: 0.3360E-02   max: -.1246E-01   D at   77  1
       a = 12.000      CL =  1.8165
      Cm = -0.1061     CD =  0.03810   =>   CDf =  0.00681    CDp =  0.03128

 Side 1  free  transition at x/c =  0.3494   57
 Side 2 forced transition at x/c =  1.0001   69

   5   rms: 0.1189E-03   max: -.5833E-03   D at   79  2
       a = 12.000      CL =  1.8166
      Cm = -0.1061     CD =  0.03811   =>   CDf =  0.00683    CDp =  0.03128

 Side 1  free  transition at x/c =  0.3494   57
 Side 2 forced transition at x/c =  1.0001   69

   6   rms: 0.6354E-05   max: 0.3541E-04   C at   69  2
       a = 12.000      CL =  1.8166
      Cm = -0.1061     CD =  0.03811   =>   CDf =  0.00683    CDp =  0.03128

 Point added to stored polar  1
 Point written to save file  000165M0.1.log                                  
 Dump file unspecified or not available
 Calculating wake trajectory ...
 Calculating source influence matrix ...

 Solving BL system ...

 Side 1  free  transition at x/c =  0.3494   57
 Side 2 forced transition at x/c =  1.0001   69

   1   rms: 0.1371E+00   max: -.7269E+00   D at   58  1   RLX: 0.590
       a = 13.000      CL =  1.8353
      Cm = -0.1034     CD =  0.04121   =>   CDf =  0.00652    CDp =  0.03470

 MRCHDU: Convergence failed at  58  side 1    Res =  0.3610E+01
 MRCHDU: Convergence failed at  59  side 1    Res =  0.1151E+01
 MRCHDU: Convergence failed at  60  side 1    Res =  0.1248E+01
 MRCHDU: Convergence failed at  61  side 1    Res =  0.2046E+01
 MRCHDU: Convergence failed at  62  side 1    Res =  0.2474E+01
 MRCHDU: Convergence failed at  63  side 1    Res =  0.2979E+01
 MRCHDU: Convergence failed at  64  side 1    Res =  0.3667E+01
 MRCHDU: Convergence failed at  65  side 1    Res =  0.4712E+01
 MRCHDU: Convergence failed at  66  side 1    Res =  0.6453E+01
 MRCHDU: Convergence failed at  67  side 1    Res =  0.1025E+02
 MRCHDU: Convergence failed at  68  side 1    Res =  0.2343E+02
 MRCHDU: Convergence failed at  69  side 1    Res =  0.9572E+02
 MRCHDU: Convergence failed at  70  side 1    Res =  0.1299E+02
 MRCHDU: Convergence failed at  71  side 1    Res =  0.9675E+02
 MRCHDU: Convergence failed at  72  side 1    Res =  0.2242E+02
 MRCHDU: Convergence failed at  73  side 1    Res =  0.1008E+03
 MRCHDU: Convergence failed at  74  side 1    Res =  0.1181E+02
 MRCHDU: Convergence failed at  75  side 1    Res =  0.4931E+02
 MRCHDU: Convergence failed at  76  side 1    Res =  0.5260E+02
 MRCHDU: Convergence failed at  77  side 1    Res =  0.1219E+02
 MRCHDU: Convergence failed at  78  side 1    Res =  0.1460E+02
 MRCHDU: Convergence failed at  79  side 1    Res =  0.3106E+03
 MRCHDU: Convergence failed at  80  side 1    Res =  0.2385E+02
 MRCHDU: Convergence failed at  81  side 1    Res =  0.9656E+01
 MRCHDU: Convergence failed at  82  side 1    Res =  0.1462E+02
 MRCHDU: Convergence failed at  83  side 1    Res =  0.3630E+02
 MRCHDU: Convergence failed at  84  side 1    Res =  0.1215E+03
 MRCHDU: Convergence failed at  85  side 1    Res =  0.7833E+02
 MRCHDU: Convergence failed at  86  side 1    Res =  0.2615E+02
 MRCHDU: Convergence failed at  87  side 1    Res =  0.2053E+02
 MRCHDU: Convergence failed at  88  side 1    Res =  0.1037E+02
 MRCHDU: Convergence failed at  89  side 1    Res =  0.1039E+02
 MRCHDU: Convergence failed at  90  side 1    Res =  0.1482E+02
 MRCHDU: Convergence failed at  91  side 1    Res =  0.1535E+02
 MRCHDU: Convergence failed at  92  side 1    Res =  0.1839E+02
 MRCHDU: Convergence failed at  93  side 1    Res =  0.3000E+02
 MRCHDU: Convergence failed at  94  side 1    Res =  0.3771E+02
 MRCHDU: Convergence failed at  79  side 2    Res =  0.4218E+01
 Side 1  free  transition at x/c =  0.3358   57
 Side 2 forced transition at x/c =  1.0001   68

   2   rms: 0.1038E+01   max: 0.4832E+01   D at   94  1   RLX: 0.310
       a = 13.000      CL =  2.6325
      Cm = -0.4471     CD =  0.00993   =>   CDf =  0.00465    CDp =  0.00528

 MRCHDU: Convergence failed at  75  side 2    Res =  0.2256E+01
 Side 1  free  transition at x/c =  0.3149   57
 Side 2 forced transition at x/c =  1.0001   67

   3   rms: 0.5469E+00   max: 0.1065E+01   C at   67  2   RLX: 0.330
       a = 13.000      CL =  2.5477
      Cm = -0.3284     CD =  0.01690   =>   CDf =  0.00915    CDp =  0.00776

 Side 1  free  transition at x/c =  0.2965   57
 Side 2 forced transition at x/c =  1.0001   66

   4   rms: 0.3563E+00   max: 0.2768E+01   D at   94  1   RLX: 0.542
       a = 13.000      CL =  2.2908
      Cm = -0.2051     CD =  0.02001   =>   CDf =  0.00886    CDp =  0.01115

 MRCHDU: Convergence failed at  82  side 1    Res =  0.8790E+00
 MRCHDU: Convergence failed at  83  side 1    Res =  0.1824E+01
 MRCHDU: Convergence failed at  93  side 1    Res =  0.2399E+02
 MRCHDU: Convergence failed at  94  side 1    Res =  0.2470E+02
 Side 1  free  transition at x/c =  0.2996   57
 Side 2 forced transition at x/c =  1.0001   66

   5   rms: 0.3088E+00   max: 0.1117E+01   D at   72  2   RLX: 0.977
       a = 13.000      CL =  1.9959
      Cm = -0.1163     CD =  0.03169   =>   CDf =  0.00856    CDp =  0.02313

 MRCHDU: Convergence failed at  78  side 1    Res =  0.6166E+01
 MRCHDU: Convergence failed at  79  side 1    Res =  0.1882E+01
 MRCHDU: Convergence failed at  80  side 1    Res =  0.8937E+01
 MRCHDU: Convergence failed at  81  side 1    Res =  0.2895E+01
 MRCHDU: Convergence failed at  82  side 1    Res =  0.1642E+01
 MRCHDU: Convergence failed at  83  side 1    Res =  0.1367E+01
 MRCHDU: Convergence failed at  84  side 1    Res =  0.2494E+01
 MRCHDU: Convergence failed at  85  side 1    Res =  0.2038E+01
 Side 1  free  transition at x/c =  0.3049   56
 Side 2 forced transition at x/c =  1.0001   67

   6   rms: 0.1620E+00   max: 0.1402E+01   D at   85  1
       a = 13.000      CL =  2.0044
      Cm = -0.1179     CD =  0.03443   =>   CDf =  0.00745    CDp =  0.02698

 MRCHDU: Convergence failed at  85  side 1    Res =  0.2044E+02
 Side 1  free  transition at x/c =  0.3116   56
 Side 2 forced transition at x/c =  1.0001   67

   7   rms: 0.2498E+00   max: 0.1659E+01   D at   85  1   RLX: 0.904
       a = 13.000      CL =  1.8679
      Cm = -0.1108     CD =  0.04493   =>   CDf =  0.00743    CDp =  0.03750

 Side 1  free  transition at x/c =  0.3244   56
 Side 2 forced transition at x/c =  1.0001   68

   8   rms: 0.7223E-01   max: 0.3787E+00   D at   79  2
       a = 13.000      CL =  1.8060
      Cm = -0.1001     CD =  0.04822   =>   CDf =  0.00660    CDp =  0.04162

 Side 1  free  transition at x/c =  0.3266   56
 Side 2 forced transition at x/c =  1.0001   68

   9   rms: 0.1140E-01   max: 0.1025E+00   C at   56  1
       a = 13.000      CL =  1.8135
      Cm = -0.1005     CD =  0.04691   =>   CDf =  0.00660    CDp =  0.04031

 Side 1  free  transition at x/c =  0.3235   56
 Side 2 forced transition at x/c =  1.0001   68

  10   rms: 0.7812E-03   max: -.7463E-02   D at   56  1
       a = 13.000      CL =  1.8133
      Cm = -0.1005     CD =  0.04698   =>   CDf =  0.00668    CDp =  0.04030

 Side 1  free  transition at x/c =  0.3234   56
 Side 2 forced transition at x/c =  1.0001   68

  11   rms: 0.6530E-04   max: -.2555E-03   D at   80  2
       a = 13.000      CL =  1.8134
      Cm = -0.1005     CD =  0.04699   =>   CDf =  0.00668    CDp =  0.04031

 Point added to stored polar  1
 Point written to save file  000165M0.1.log                                  
 Dump file unspecified or not available
 Calculating wake trajectory ...
 Calculating source influence matrix ...

 Solving BL system ...

 Side 1  free  transition at x/c =  0.3234   56
 Side 2 forced transition at x/c =  1.0001   68

   1   rms: 0.1414E+00   max: 0.6404E+00   D at   73  1   RLX: 0.489
       a = 14.000      CL =  1.8025
      Cm = -0.0983     CD =  0.05342   =>   CDf =  0.00670    CDp =  0.04672

 Side 1  free  transition at x/c =  0.3105   55
 Side 2 forced transition at x/c =  1.0001   68

   2   rms: 0.6543E-01   max: 0.2968E+00   D at   73  1
       a = 14.000      CL =  1.7967
      Cm = -0.0965     CD =  0.05935   =>   CDf =  0.00636    CDp =  0.05299

 Side 1  free  transition at x/c =  0.2994   56
 Side 2 forced transition at x/c =  1.0001   67

   3   rms: 0.2956E-01   max: 0.3653E+00   T at    2  1
       a = 14.000      CL =  1.8103
      Cm = -0.0965     CD =  0.05681   =>   CDf =  0.00654    CDp =  0.05027

 Side 1  free  transition at x/c =  0.2998   56
 Side 2 forced transition at x/c =  1.0001   67

   4   rms: 0.3161E-02   max: 0.1777E-01   D at    4  1
       a = 14.000      CL =  1.8123
      Cm = -0.0966     CD =  0.05691   =>   CDf =  0.00654    CDp =  0.05037

 Side 1  free  transition at x/c =  0.2999   56
 Side 2 forced transition at x/c =  1.0001   67

   5   rms: 0.2470E-03   max: -.1119E-02   D at   80  2
       a = 14.000      CL =  1.8125
      Cm = -0.0967     CD =  0.05692   =>   CDf =  0.00654    CDp =  0.05038

 Side 1  free  transition at x/c =  0.2999   56
 Side 2 forced transition at x/c =  1.0001   67

   6   rms: 0.1529E-04   max: 0.9026E-04   C at   67  2
       a = 14.000      CL =  1.8125
      Cm = -0.0967     CD =  0.05692   =>   CDf =  0.00654    CDp =  0.05038

 Point added to stored polar  1
 Point written to save file  000165M0.1.log                                  
 Dump file unspecified or not available
 Calculating wake trajectory ...
 Calculating source influence matrix ...

 Solving BL system ...

 Side 1  free  transition at x/c =  0.2999   56
 Side 2 forced transition at x/c =  1.0001   67

   1   rms: 0.1231E+00   max: -.5529E+00   D at   57  1   RLX: 0.451
       a = 15.000      CL =  1.8174
      Cm = -0.0955     CD =  0.06145   =>   CDf =  0.00656    CDp Got result {'DD': 0.01754, 'Dmin': 0.01751, 'LL': -1.2573}
Completed successfully in 3.32 seconds. [{'DD': 0.01754, 'Dmin': 0.01751, 'LL': -1.2573}]
=  0.05489

 Side 1  free  transition at x/c =  0.2867   55
 Side 2 forced transition at x/c =  1.0001   67

   2   rms: 0.7722E-01   max: 0.3909E+00   D at   72  1
       a = 15.000      CL =  1.7956
      Cm = -0.0944     CD =  0.07087   =>   CDf =  0.00654    CDp =  0.06432

 Side 1  free  transition at x/c =  0.2748   54
 Side 2 forced transition at x/c =  1.0001   67

   3   rms: 0.1172E-01   max: -.1053E+00   D at   54  1
       a = 15.000      CL =  1.7953
      Cm = -0.0937     CD =  0.06932   =>   CDf =  0.00640    CDp =  0.06292

 Side 1  free  transition at x/c =  0.2747   54
 Side 2 forced transition at x/c =  1.0001   67

   4   rms: 0.2837E-02   max: -.1258E-01   D at   72  1
       a = 15.000      CL =  1.7977
      Cm = -0.0938     CD =  0.06921   =>   CDf =  0.00635    CDp =  0.06286

 Side 1  free  transition at x/c =  0.2744   54
 Side 2 forced transition at x/c =  1.0001   67

   5   rms: 0.2014E-03   max: -.1193E-02   D at   81  2
       a = 15.000      CL =  1.7978
      Cm = -0.0939     CD =  0.06925   =>   CDf =  0.00636    CDp =  0.06289

 Side 1  free  transition at x/c =  0.2744   54
 Side 2 forced transition at x/c =  1.0001   67

   6   rms: 0.7325E-05   max: -.5149E-04   D at   81  2
       a = 15.000      CL =  1.7978
      Cm = -0.0939     CD =  0.06925   =>   CDf =  0.00636    CDp =  0.06289

 Point added to stored polar  1
 Point written to save file  000165M0.1.log                                  
 Dump file unspecified or not available

.OPERva   c>  
 XFOIL   c>  
