Job launching after 0.30 seconds in submission.
Running python job.
Changed into dir /home/simonx/Documents/Udacity/Projects/capstone/PESM_NSGA2_CST_XFoil
Importing evaluationFunctionXFoil.py
Running evaluationFunctionXFoil.main()
0
1
2
0.04
resp: 
 ===================================================
  XFOIL Version 6.97
  Copyright (C) 2000   Mark Drela, Harold Youngren

  This software comes with ABSOLUTELY NO WARRANTY,
    subject to the GNU General Public License.

  Caveat computor
 ===================================================

 File  xfoil.def  not found

   QUIT    Exit program

  .OPER    Direct operating point(s)
  .MDES    Complex mapping design routine
  .QDES    Surface speed design routine
  .GDES    Geometry design routine

   SAVE f  Write airfoil to labeled coordinate file
   PSAV f  Write airfoil to plain coordinate file
   ISAV f  Write airfoil to ISES coordinate file
   MSAV f  Write airfoil to MSES coordinate file
   REVE    Reverse written-airfoil node ordering
   DELI i  Change written-airfoil file delimiters

   LOAD f  Read buffer airfoil from coordinate file
   NACA i  Set NACA 4,5-digit airfoil and buffer airfoil
   INTE    Set buffer airfoil by interpolating two airfoils
   NORM    Buffer airfoil normalization toggle
   HALF    Halve the number of points in buffer airfoil
   XYCM rr Change CM reference location, currently  0.25000 0.00000

   BEND    Display structural properties of current airfoil

   PCOP    Set current-airfoil panel nodes directly from buffer airfoil points
   PANE    Set current-airfoil panel nodes ( 160 ) based on curvature
  .PPAR    Show/change paneling

  .PLOP    Plotting options

   WDEF f  Write  current-settings file
   RDEF f  Reread current-settings file
   NAME s  Specify new airfoil name
   NINC    Increment name version number

   Z       Zoom    | (available in all menus)
   U       Unzoom  | 

 XFOIL   c>   ...............................................

  G raphics-enable flag:        T
  S ize of plot object          10.00"
  A spect ratio of plot object   0.5500
  P age dimensions              11.00 x  8.50"
  M argins from page edges       0.00",  0.00"
  F ont size (relative)          0.0150
  W indow/screen size fraction   0.8000
  B lowup input method:        Cursor    
  O rientation of plot:        Landscape 
  C olor PostScript output?     F

      Option, Value   (or <Return>)    c>   ...............................................

  G raphics-enable flag:        F
  S ize of plot object          10.00"
  A spect ratio of plot object   0.5500
  P age dimensions              11.00 x  8.50"
  M argins from page edges       0.00",  0.00"
  F ont size (relative)          0.0150
  W indow/screen size fraction   0.8000
  B lowup input method:        Cursor    
  O rientation of plot:        Landscape 
  C olor PostScript output?     F

      Option, Value   (or <Return>)    c>  
 XFOIL   c>  
 Labeled airfoil file.  Name:  000090                                          

 Number of input coordinate points: 200
 Clockwise ordering
 Max thickness =     0.114167  at x =   0.194
 Max camber    =     0.100279  at x =   0.469

  LE  x,y  =  -0.00000   0.00042  |   Chord =   0.99988
  TE  x,y  =   0.99988   0.00006  |

 Current airfoil nodes set from buffer airfoil nodes ( 200 )

 XFOIL   c>  
 You are working with the buffer airfoil

.GDES   c>  
  i       x        y      angle
   2   0.9990   0.0005    0.053
   3   0.9978   0.0011    0.103
   4   0.9961   0.0019    0.113
   5   0.9938   0.0029    0.143
   6   0.9911   0.0042    0.167
   7   0.9880   0.0056    0.178
   8   0.9843   0.0073    0.234
   9   0.9801   0.0092    0.236
  10   0.9755   0.0113    0.266
  11   0.9704   0.0135    0.272
  12   0.9649   0.0159    0.310
  13   0.9589   0.0185    0.313
  14   0.9524   0.0213    0.345
  15   0.9455   0.0242    0.340
  16   0.9382   0.0272    0.355
  17   0.9304   0.0303    0.375
  18   0.9222   0.0335    0.380
  19   0.9135   0.0369    0.388
  20   0.9045   0.0403    0.390
  21   0.8951   0.0438    0.398
  22   0.8853   0.0474    0.395
  23   0.8751   0.0510    0.406
  24   0.8645   0.0547    0.404
  25   0.8536   0.0585    0.399
  26   0.8423   0.0622    0.404
  27   0.8307   0.0660    0.404
  28   0.8187   0.0698    0.398
  29   0.8065   0.0736    0.404
  30   0.7939   0.0774    0.399
  31   0.7810   0.0812    0.406
  32   0.7679   0.0849    0.402
  33   0.7545   0.0887    0.407
  34   0.7409   0.0924    0.414
  35   0.7270   0.0960    0.414
  36   0.7129   0.0996    0.429
  37   0.6986   0.1032    0.435
  38   0.6841   0.1067    0.441
  39   0.6694   0.1101    0.465
  40   0.6545   0.1134    0.472
  41   0.6395   0.1166    0.492
  42   0.6243   0.1197    0.516
  43   0.6091   0.1227    0.536
  44   0.5937   0.1256    0.557
  45   0.5782   0.1283    0.592
  46   0.5627   0.1309    0.613
  47   0.5471   0.1333    0.645
  48   0.5314   0.1356    0.683
  49   0.5157   0.1376    0.707
  50   0.5000   0.1395    0.746
  51   0.4843   0.1412    0.786
  52   0.4686   0.1426    0.811
  53   0.4529   0.1438    0.856
  54   0.4373   0.1448    0.889
  55   0.4218   0.1455    0.922
  56   0.4063   0.1460    0.957
  57   0.3909   0.1462    0.988
  58   0.3757   0.1462    1.022
  59   0.3605   0.1459    1.044
  60   0.3455   0.1453    1.080
  61   0.3306   0.1444    1.094
  62   0.3159   0.1433    1.121
  63   0.3014   0.1419    1.136
  64   0.2871   0.1402    1.146
  65   0.2730   0.1382    1.162
  66   0.2591   0.1361    1.166
  67   0.2455   0.1336    1.173
  68   0.2321   0.1309    1.164
  69   0.2190   0.1280    1.174
  70   0.2061   0.1249    1.168
  71   0.1935   0.1216    1.157
  72   0.1813   0.1181    1.154
  73   0.1693   0.1144    1.148
  74   0.1577   0.1105    1.137
  75   0.1464   0.1066    1.137
  76   0.1355   0.1025    1.125
  77   0.1249   0.0982    1.133
  78   0.1147   0.0940    1.140
  79   0.1049   0.0896    1.145
  80   0.0955   0.0852    1.172
  81   0.0865   0.0807    1.192
  82   0.0778   0.0762    1.238
  83   0.0696   0.0717    1.302
  84   0.0618   0.0672    1.363
  85   0.0545   0.0628    1.461
  86   0.0476   0.0583    1.586
  87   0.0411   0.0539    1.738
  88   0.0351   0.0495    1.918
  89   0.0296   0.0451    2.156
  90   0.0245   0.0408    2.436
  91   0.0199   0.0366    2.774
  92   0.0157   0.0323    3.187
  93   0.0120   0.0282    3.646
  94   0.0089   0.0241    4.213
  95   0.0062   0.0200    4.813
  96   0.0039   0.0159    5.451
  97   0.0022   0.0119    6.084
  98   0.0010   0.0079    6.614
  99   0.0002   0.0040    6.983
 100   0.0000   0.0000    9.055
 101   0.0002  -0.0026   10.769
 102   0.0010  -0.0051   10.230
 103   0.0022  -0.0076    9.473
 104   0.0039  -0.0100    8.548
 105   0.0062  -0.0122    7.652
 106   0.0089  -0.0143    6.827
 107   0.0120  -0.0162    6.015
 108   0.0157  -0.0179    5.344
 109   0.0199  -0.0194    4.703
 110   0.0245  -0.0206    4.185
 111   0.0296  -0.0216    3.697
 112   0.0351  -0.0223    3.276
 113   0.0411  -0.0227    2.902
 114   0.0476  -0.0228    2.561
 115   0.0545  -0.0226    2.256
 116   0.0618  -0.0221    1.983
 117   0.0696  -0.0213    1.735
 118   0.0778  -0.0202    1.515
 119   0.0865  -0.0188    1.295
 120   0.0955  -0.0171    1.110
 121   0.1049  -0.0152    0.937
 122   0.1147  -0.0130    0.772
 123   0.1249  -0.0106    0.617
 124   0.1355  -0.0080    0.484
 125   0.1464  -0.0052    0.356
 126   0.1577  -0.0022    0.230
 127   0.1693   0.0009    0.120
 128   0.1813   0.0041    0.023
 129   0.1935   0.0074   -0.084
 130   0.2061   0.0108   -0.162
 131   0.2190   0.0142   -0.252
 132   0.2321   0.0176   -0.319
 133   0.2455   0.0210   -0.388
 134   0.2591   0.0244   -0.456
 135   0.2730   0.0277   -0.506
 136   0.2871   0.0310   -0.554
 137   0.3014   0.0341   -0.597
 138   0.3159   0.0371   -0.632
 139   0.3306   0.0400   -0.666
 140   0.3455   0.0428   -0.688
 141   0.3605   0.0454   -0.707
 142   0.3757   0.0478   -0.720
 143   0.3909   0.0501   -0.734
 144   0.4063   0.0521   -0.730
 145   0.4218   0.0540   -0.739
 146   0.4373   0.0557   -0.729
 147   0.4529   0.0572   -0.724
 148   0.4686   0.0585   -0.714
 149   0.4843   0.0596   -0.705
 150   0.5000   0.0605   -0.688
 151   0.5157   0.0612   -0.668
 152   0.5314   0.0617   -0.658
 153   0.5471   0.0621   -0.638
 154   0.5627   0.0622   -0.620
 155   0.5782   0.0622   -0.603
 156   0.5937   0.0621   -0.584
 157   0.6091   0.0618   -0.567
 158   0.6243   0.0613   -0.554
 159   0.6395   0.0607   -0.535
 160   0.6545   0.0600   -0.528
 161   0.6694   0.0591   -0.516
 162   0.6841   0.0581   -0.500
 163   0.6986   0.0570   -0.501
 164   0.7129   0.0558   -0.483
 165   0.7270   0.0545   -0.486
 166   0.7409   0.0531   -0.483
 167   0.7545   0.0516   -0.472
 168   0.7679   0.0500   -0.478
 169   0.7810   0.0483   -0.475
 170   0.7939   0.0465   -0.476
 171   0.8065   0.0447   -0.479
 172   0.8187   0.0429   -0.478
 173   0.8307   0.0409   -0.483
 174   0.8423   0.0390   -0.477
 175   0.8536   0.0369   -0.483
 176   0.8645   0.0349   -0.487
 177   0.8751   0.0328   -0.479
 178   0.8853   0.0307   -0.474
 179   0.8951   0.0286   -0.484
 180   0.9045   0.0265   -0.474
 181   0.9135   0.0244   -0.461
 182   0.9222   0.0224   -0.461
 183   0.9304   0.0203   -0.446
 184   0.9382   0.0183   -0.429
 185   0.9455   0.0164   -0.426
 186   0.9524   0.0145   -0.412
 187   0.9589   0.0127   -0.376
 188   0.9649   0.0110   -0.379
 189   0.9704   0.0094   -0.326
 190   0.9755   0.0078   -0.329
 191   0.9801   0.0064   -0.295
 192   0.9843   0.0051   -0.265
 193   0.9880   0.0039   -0.219
 194   0.9911   0.0029   -0.218
 195   0.9938   0.0020   -0.180
 196   0.9961   0.0013   -0.122
 197   0.9978   0.0007   -0.093
 198   0.9990   0.0003   -0.079
 199   0.9998   0.0001   -0.046

 Maximum panel corner angle = 10.769   at  i,x,y  = 101   0.0002  -0.0026

 Enter corner angle criterion for refinement (deg):   5.385
 Enter type of spline parameter (1=uniform, 2=arclength):   1
 Enter refinement x limits:  -0.10000   1.10000
 Number of points added:           24
 Max thickness =     0.114153  at x =   0.194
 Max camber    =     0.100504  at x =   0.469

 Maximum panel corner angle =  4.703   at  i,x,y  = 133   0.0199  -0.0194

.GDES   c>  
 Buffer airfoil is not identical to current airfoil

 XFOIL   c>  
 Blunt trailing edge.  Gap =  0.00027

 Paneling parameters used...
   Number of panel nodes       160
   Panel bunching parameter    1.000
   TE/LE panel density ratio   0.150
   Refined-area/LE panel density ratio    0.200
   Top    side refined area x/c limits  1.000 1.000
   Bottom side refined area x/c limits  1.000 1.000

 XFOIL   c>  
Enter output filename   s>  
 XFOIL   c>  
.OPERi   c>   Current iteration limit:          20

Enter new iteration limit   i>  
Enter new iteration limit   i>  
Enter new iteration limit   i>  
.OPERi   c>  
 M  =    0.0000
 Re =  0.3000E+06

.OPERv   c>  
 Sonic Cp =   -420.65      Sonic Q/Qinf =    22.825


.OPERv   c>  
 Polar  1 newly created for accumulation
 Airfoil archived with polar: 000090                                          

Enter  polar save filename  OR  <return> for no file   s>  
 New polar save file available

Enter  polar dump filename  OR  <return> for no file   s>  
 Polar dump file will NOT be written

 Polar accumulation enabled

.OPERva   c>   Calculating unit vorticity distributions ...
 Calculating wake trajectory ...
 Calculating source influence matrix ...

 Solving BL system ...

 Initializing BL ...
    side            1  ...
 MRCHUE: Inverse mode at  53     Hk =   4.190
 MRCHUE: Inverse mode at  54     Hk =   4.919
 MRCHUE: Inverse mode at  55     Hk =   5.635
 MRCHUE: Inverse mode at  56     Hk =   6.340
 MRCHUE: Inverse mode at  57     Hk =   7.037
 MRCHUE: Inverse mode at  58     Hk =   7.729
 MRCHUE: Inverse mode at  59     Hk =   8.417
 MRCHUE: Inverse mode at  60     Hk =   9.102
 MRCHUE: Inverse mode at  61     Hk =   6.855
 MRCHUE: Inverse mode at  62     Hk =   4.653
 MRCHUE: Inverse mode at  63     Hk =   3.230
 MRCHUE: Inverse mode at  86     Hk =   2.500
    side            2  ...
 MRCHUE: Inverse mode at  24     Hk =   4.071
 MRCHUE: Inverse mode at  25     Hk =   4.996
 MRCHUE: Inverse mode at  26     Hk =   5.926
 MRCHUE: Inverse mode at  27     Hk =   6.860
 MRCHUE: Inverse mode at  28     Hk =   7.792
 MRCHUE: Inverse mode at  29     Hk =   8.705
 MRCHUE: Inverse mode at  30     Hk =   9.586
 MRCHUE: Inverse mode at  31     Hk =   7.491
 MRCHUE: Inverse mode at  32     Hk =   4.771
 MRCHUE: Inverse mode at  33     Hk =   3.195

 Side 1  free  transition at x/c =  0.5798   61
 Side 2  free  transition at x/c =  0.2258   31

   1   rms: 0.1724E+00   max: -.7492E+00   T at   61  1   RLX: 0.667
       a =  2.000      CL =  1.4487
      Cm = -0.2822     CD =  0.01543   =>   CDf =  0.00820    CDp =  0.00723

 Side 1  free  transition at x/c =  0.5939   61
 Side 2  free  transition at x/c =  0.2163   31

   2   rms: 0.1209E+00   max: -.8386E+00   T at   61  1   RLX: 0.596
       a =  2.000      CL =  1.4204
      Cm = -0.2753     CD =  0.01474   =>   CDf =  0.00804    CDp =  0.00671

 Side 1  free  transition at x/c =  0.6029   61
 Side 2  free  transition at x/c =  0.2125   31

   3   rms: 0.5796E-01   max: -.4407E+00   D at   61  1
       a =  2.000      CL =  1.4139
      Cm = -0.2738     CD =  0.01490   =>   CDf =  0.00781    CDp =  0.00709

 Side 1  free  transition at x/c =  0.6126   62
 Side 2  free  transition at x/c =  0.2106   31

   4   rms: 0.8143E-02   max: 0.8595E-01   D at   62  1
       a =  2.000      CL =  1.4116
      Cm = -0.2734     CD =  0.01494   =>   CDf =  0.00763    CDp =  0.00731

 Side 1  free  transition at x/c =  0.6102   62
 Side 2  free  transition at x/c =  0.2099   31

   5   rms: 0.4192E-03   max: -.7008E-02   D at   63  1
       a =  2.000      CL =  1.4115
      Cm = -0.2734     CD =  0.01495   =>   CDf =  0.00768    CDp =  0.00728

 Side 1  free  transition at x/c =  0.6101   62
 Side 2  free  transition at x/c =  0.2099   31

   6   rms: 0.3897E-05   max: -.5735E-04   D at   63  1
       a =  2.000      CL =  1.4115
      Cm = -0.2734     CD =  0.01495   =>   CDf =  0.00768    CDp =  0.00727

 Point added to stored polar  1
 Point written to save file  000090M0.04.log                                 
 Dump file unspecified or not available
 Calculating wake trajectory ...
 Calculating source influence matrix ...

 Solving BL system ...

 Side 1  free  transition at x/c =  0.6101   62
 Side 2  free  transition at x/c =  0.2099   31

   1   rms: 0.1748E+00   max: -.1179E+01   T at   31  2   RLX: 0.424
       a =  3.000      CL =  1.4621
      Cm = -0.2742     CD =  0.01543   =>   CDf =  0.00751    CDp =  0.00792

 Side 1  free  transition at x/c =  0.6030   62
 Side 2  free  transition at x/c =  0.2249   31

   2   rms: 0.9317E-01   max: -.6183E+00   T at   31  2   RLX: 0.809
       a =  3.000      CL =  1.5069
      Cm = -0.2729     CD =  0.01538   =>   CDf =  0.00762    CDp =  0.00776

 Side 1  free  transition at x/c =  0.5910   61
 Side 2  free  transition at x/c =  0.2366   32

   3   rms: 0.1151E+00   max: -.6865E+00   T at   32  2   RLX: 0.728
       a =  3.000      CL =  1.5187
      Cm = -0.2735     CD =  0.01542   =>   CDf =  0.00775    CDp =  0.00767

 Side 1  free  transition at x/c =  0.5909   61
 Side 2  free  transition at x/c =  0.2455   32

   4   rms: 0.3077E-01   max: -.2233E+00   D at   32  2
       a =  3.000      CL =  1.5212
      Cm = -0.2732     CD =  0.01547   =>   CDf =  0.00764    CDp =  0.00783

 Side 1  free  transition at x/c =  0.5905   61
 Side 2  free  transition at x/c =  0.2446   32

   5   rms: 0.1171E-02   max: 0.1091E-01   D at   33  2
       a =  3.000      CL =  1.5212
      Cm = -0.2732     CD =  0.01548   =>   CDf =  0.00762    CDp =  0.00786

 Side 1  free  transition at x/c =  0.5904   61
 Side 2  free  transition at x/c =  0.2444   32

   6   rms: 0.5010E-05   max: -.8901E-04   D at   34  2
       a =  3.000      CL =  1.5212
      Cm = -0.2732     CD =  0.01548   =>   CDf =  0.00762    CDp =  0.00786

 Point added to stored polar  1
 Point written to save file  000090M0.04.log                                 
 Dump file unspecified or not available
 Calculating wake trajectory ...
 Calculating source influence matrix ...

 Solving BL system ...

 Side 1  free  transition at x/c =  0.5904   61
 Side 2  free  transition at x/c =  0.2444   32

   1   rms: 0.1639E+00   max: -.1149E+01   T at   32  2   RLX: 0.435
       a =  4.000      CL =  1.5650
      Cm = -0.2725     CD =  0.01571   =>   CDf =  0.00743    CDp =  0.00828

 Side 1  free  transition at x/c =  0.5807   62
 Side 2  free  transition at x/c =  0.2623   32

   2   rms: 0.9738E-01   max: -.6725E+00   T at   32  2   RLX: 0.743
       a =  4.000      CL =  1.6119
      Cm = -0.2725     CD =  0.01602   =>   CDf =  0.00755    CDp =  0.00847

 Side 1  free  transition at x/c =  0.5738   61
 Side 2  free  transition at x/c =  0.2783   33

   3   rms: 0.3080E-01   max: -.2806E+00   T at   33  2
       a =  4.000      CL =  1.6284
      Cm = -0.2727     CD =  0.01614   =>   CDf =  0.00737    CDp =  0.00876

 Side 1  free  transition at x/c =  0.5714   62
 Side 2  free  transition at x/c =  0.2867   32

   4   rms: 0.1748E-01   max: -.1580E+00   D at   33  2
       a =  4.000      CL =  1.6285
      Cm = -0.2727     CD =  0.01616   =>   CDf =  0.00752    CDp =  0.00865

 Side 1  free  transition at x/c =  0.5715   62
 Side 2  free  transition at x/c =  0.2887   32

   5   rms: 0.8182E-03   max: 0.1183E-01   D at   33  2
       a =  4.000      CL =  1.6286
      Cm = -0.2727     CD =  0.01617   =>   CDf =  0.00751    CDp =  0.00866

 Side 1  free  transition at x/c =  0.5715   62
 Side 2  free  transition at x/c =  0.2885   32

   6   rms: 0.5855E-05   max: 0.6314E-04   D at   33  2
       a =  4.000      CL =  1.6286
      Cm = -0.2727     CD =  0.01617   =>   CDf =  0.00751    CDp =  0.00866

 Point added to stored polar  1
 Point written to save file  000090M0.04.log                                 
 Dump file unspecified or not available
 Calculating wake trajectory ...
 Calculating source influence matrix ...

 Solving BL system ...

 Side 1  free  transition at x/c =  0.5715   62
 Side 2  free  transition at x/c =  0.2885   32

   1   rms: 0.1776E+00   max: -.1520E+01   T at   32  2   RLX: 0.329
       a =  5.000      CL =  1.6609
      Cm = -0.2720     CD =  0.01647   =>   CDf =  0.00752    CDp =  0.00895

 MRCHDU: Convergence failed at  34  side 2    Res =  0.9159E+01
 MRCHDU: Convergence failed at  35  side 2    Res =  0.5481E+01
 MRCHDU: Convergence failed at  36  side 2    Res =  0.3301E+02
 MRCHDU: Convergence failed at  37  side 2    Res =  0.4259E+02
 MRCHDU: Convergence failed at  38  side 2    Res =  0.2363E+02
 MRCHDU: Convergence failed at  39  side 2    Res =  0.2083E+02
 MRCHDU: Convergence failed at  40  side 2    Res =  0.2126E+02
 MRCHDU: Convergence failed at  41  side 2    Res =  0.2353E+02
 MRCHDU: Convergence failed at  42  side 2    Res =  0.2762E+02
 MRCHDU: Convergence failed at  43  side 2    Res =  0.3600E+02
 MRCHDU: Convergence failed at  44  side 2    Res =  0.5106E+02
 MRCHDU: Convergence failed at  45  side 2    Res =  0.9868E+02
 MRCHDU: Convergence failed at  46  side 2    Res =  0.3531E+05
 MRCHDU: Convergence failed at  47  side 2    Res =  0.8774E+02
 MRCHDU: Convergence failed at  48  side 2    Res =  0.4080E+02
 MRCHDU: Convergence failed at  49  side 2    Res =  0.2515E+02
 MRCHDU: Convergence failed at  50  side 2    Res =  0.1737E+02
 MRCHDU: Convergence failed at  51  side 2    Res =  0.1284E+02
 MRCHDU: Convergence failed at  52  side 2    Res =  0.9196E+01
 MRCHDU: Convergence failed at  53  side 2    Res =  0.7245E+01
 MRCHDU: Convergence failed at  54  side 2    Res =  0.5823E+01
 MRCHDU: Convergence failed at  55  side 2    Res =  0.4764E+01
 MRCHDU: Convergence failed at  56  side 2    Res =  0.3942E+01
 MRCHDU: Convergence failed at  57  side 2    Res =  0.3295E+01
 MRCHDU: Convergence failed at  58  side 2    Res =  0.2777E+01
 MRCHDU: Convergence failed at  59  side 2    Res =  0.2350E+01
 MRCHDU: Convergence failed at  60  side 2    Res =  0.2123E+01
 Side 1  free  transition at x/c =  0.5642   62
 Side 2  free  transition at x/c =  0.3109   34

   2   rms: 0.3322E+00   max: -.1663E+01   D at   61  2   RLX: 0.301
       a =  5.000      CL =  1.6585
      Cm = -0.2650     CD =  0.01600   =>   CDf =  0.00618    CDp =  0.00983

 Side 1  free  transition at x/c =  0.5607   62
 Side 2  free  transition at x/c =  0.3311   35

   3   rms: 0.9308E-01   max: -.5918E+00   D at   36  2   RLX: 0.845
       a =  5.000      CL =  1.7240
      Cm = -0.2711     CD =  0.01695   =>   CDf =  0.00732    CDp =  0.00963

 Side 1  free  transition at x/c =  0.5550   62
 Side 2  free  transition at x/c =  0.3519   35

   4   rms: 0.1848E-01   max: 0.1580E+00   D at   36  2
       a =  5.000      CL =  1.7339
      Cm = -0.2720     CD =  0.01694   =>   CDf =  0.00732    CDp =  0.00962

 Side 1  free  transition at x/c =  0.5529   62
 Side 2  free  transition at x/c =  0.3513   35

   5   rms: 0.1013E-02   max: 0.8132E-02   C at   35  2
       a =  5.000      CL =  1.7342
      Cm = -0.2720     CD =  0.01694   =>   CDf =  0.00724    CDp =  0.00970

 Side 1  free  transition at x/c =  0.5529   62
 Side 2  free  transition at x/c =  0.3510   35

   6   rms: 0.4617E-05   max: -.3114E-04   D at   37  2
       a =  5.000      CL =  1.7343
      Cm = -0.2720     CD =  0.01694   =>   CDf =  0.00724    CDp =  0.00969

 Point added to stored polar  1
 Point written to save file  000090M0.04.log                                 
 Dump file unspecified or not available
 Calculating wake trajectory ...
 Calculating source influence matrix ...

 Solving BL system ...

 Side 1  free  transition at x/c =  0.5529   62
 Side 2  free  transition at x/c =  0.3510   35

   1   rms: 0.1774E+00   max: -.1342E+01   T at   35  2   RLX: 0.372
       a =  6.000      CL =  1.7706
      Cm = -0.2713     CD =  0.01725   =>   CDf =  0.00725    CDp =  0.01000

 Side 1  free  transition at x/c =  0.5450   62
 Side 2  free  transition at x/c =  0.3832   37

   2   rms: 0.1554E+00   max: -.1445E+01   C at   37  2   RLX: 0.346
       a =  6.000      CL =  1.7946
      Cm = -0.2713     CD =  0.01748   =>   CDf =  0.00690    CDp =  0.01058

 Side 1  free  transition at x/c =  0.5416   63
 Side 2  free  transition at x/c =  0.4004   37

   3   rms: 0.1261E+00   max: -.1121E+01   T at   37  2   RLX: 0.446
       a =  6.000      CL =  1.8169
      Cm = -0.2718     CD =  0.01770   =>   CDf =  0.00714    CDp =  0.01056

 Side 1  free  transition at x/c =  0.5390   62
 Side 2  free  transition at x/c =  0.4281   39

   4   rms: 0.1310E+00   max: -.1301E+01   C at   39  2   RLX: 0.384
       a =  6.000      CL =  1.8269
      Cm = -0.2721     CD =  0.01770   =>   CDf =  0.00714    CDp =  0.01056

 Side 1  free  transition at x/c =  0.5374   62
 Side 2  free  transition at x/c =  0.4511   40

   5   rms: 0.1076E+00   max: -.1600E+01   C at   40  2   RLX: 0.312
       a =  6.000      CL =  1.8317
      Cm = -0.2721     CD =  0.01776   =>   CDf =  0.00699    CDp =  0.01076

 Side 1  free  transition at x/c =  0.5366   62
 Side 2  free  transition at x/c =  0.4638   41

   6   rms: 0.1166E+00   max: -.1594E+01   C at   41  2   RLX: 0.314
       a =  6.000      CL =  1.8356
      Cm = -0.2723     CD =  0.01775   =>   CDf =  0.00696    CDp =  0.01079

 Side 1  free  transition at x/c =  0.5360   62
 Side 2  free  transition at x/c =  0.4811   42

   7   rms: 0.1263E+00   max: -.1950E+01   C at   42  2   RLX: 0.256
       a =  6.000      CL =  1.8379
      Cm = -0.2725     CD =  0.01776   =>   CDf =  0.00691    CDp =  0.01085

 Side 1  free  transition at x/c =  0.5357   62
 Side 2  free  transition at x/c =  0.4976   42

   8   rms: 0.5022E-01   max: -.6145E+00   C at   42  2   RLX: 0.814
       a =  6.000      CL =  1.8402
      Cm = -0.2719     CD =  0.01775   =>   CDf =  0.00686    CDp =  0.01089

 Side 1  free  transition at x/c =  0.5349   62
 Side 2 forced transition at x/c =  1.0001   72

   9   rms: 0.2403E-01   max: 0.3829E+00   D at   42  2
       a =  6.000      CL =  1.8350
      Cm = -0.2705     CD =  0.01731   =>   CDf =  0.00637    CDp =  0.01095

 Side 1  free  transition at x/c =  0.5349   62
 Side 2 forced transition at x/c =  1.0001   72

  10   rms: 0.3133E-02   max: 0.2546E-01   D at   41  2
       a =  6.000      CL =  1.8350
      Cm = -0.2705     CD =  0.01731   =>   CDf =  0.00637    CDp =  0.01094

 Side 1  free  transition at x/c =  0.5349   62
 Side 2 forced transition at x/c =  1.0001   72

  11   rms: 0.8841E-04   max: 0.5080E-03   D at   39  2
       a =  6.000      CL =  1.8350
      Cm = -0.2705     CD =  0.01731   =>   CDf =  0.00636    CDp =  0.01095

 Point added to stored polar  1
 Point written to save file  000090M0.04.log                                 
 Dump file unspecified or not available
 Calculating wake trajectory ...
 Calculating source influence matrix ...

 Solving BL system ...

 Side 1  free  transition at x/c =  0.5349   62
 Side 2 forced transition at x/c =  1.0001   72

   1   rms: 0.2328E+00   max: -.7764E+00   n at   52  2   RLX: 0.644
       a =  7.000      CL =  1.8947
      Cm = -0.2685     CD =  0.01808   =>   CDf =  0.00611    CDp =  0.01197

 Side 1  free  transition at x/c =  0.5220   63
 Side 2 forced transition at x/c =  1.0001   71

   2   rms: 0.6163E-01   max: -.2996E+00   D at   63  1
       a =  7.000      CL =  1.9397
      Cm = -0.2697     CD =  0.01872   =>   CDf =  0.00651    CDp =  0.01222

 Side 1  free  transition at x/c =  0.5185   62
 Side 2 forced transition at x/c =  1.0001   71

   3   rms: 0.9404E-02   max: -.6119E-01   C at   62  1
       a =  7.000      CL =  1.9318
      Cm = -0.2682     CD =  0.01862   =>   CDf =  0.00637    CDp =  0.01224

 Side 1  free  transition at x/c =  0.5168   62
 Side 2 forced transition at x/c =  1.0001   71

   4   rms: 0.4819E-03   max: 0.2584E-02   C at   71  2
       a =  7.000      CL =  1.9322
      Cm = -0.2682     CD =  0.01860   =>   CDf =  0.00633    CDp =  0.01228

 Side 1  free  transition at x/c =  0.5169   62
 Side 2 forced transition at x/c =  1.0001   71

   5   rms: 0.3561E-05   max: -.2337E-04   D at   91  1
       a =  7.000      CL =  1.9322
      Cm = -0.2682     CD =  0.01860   =>   CDf =  0.00632    CDp =  0.01228

 Point added to stored polar  1
 Point written to save file  000090M0.04.log                                 
 Dump file unspecified or not available
 Calculating wake trajectory ...
 Calculating source influence matrix ...

 Solving BL system ...

 Side 1  free  transition at x/c =  0.5169   62
 Side 2 forced transition at x/c =  1.0001   71

   1   rms: 0.1502E+00   max: -.2257E+00   n at   66  2
       a =  8.000      CL =  2.0197
      Cm = -0.2643     CD =  0.01996   =>   CDf =  0.00580    CDp =  0.01416

 Side 1  free  transition at x/c =  0.4841   62
 Side 2 forced transition at x/c =  1.0001   69

   2   rms: 0.6814E-01   max: -.6079E+00   D at   63  1   RLX: 0.823
       a =  8.000      CL =  2.0291
      Cm = -0.2658     CD =  0.02037   =>   CDf =  0.00631    CDp =  0.01405

 Side 1  free  transition at x/c =  0.4918   63
 Side 2 forced transition at x/c =  1.0001   69

   3   rms: 0.2429E-01   max: 0.1260E+00   D at   72  2
       a =  8.000      CL =  2.0158
      Cm = -0.2634     CD =  0.01983   =>   CDf =  0.00622    CDp =  0.01361

 Side 1  free  transition at x/c =  0.4918   63
 Side 2 forced transition at x/c =  1.0001   69

   4   rms: 0.1885E-02   max: 0.1113E-01   D at   63  1
       a =  8.000      CL =  2.0140
      Cm = -0.2630     CD =  0.01987   =>   CDf =  0.00621    CDp =  0.01367

 Side 1  free  transition at x/c =  0.4918   63
 Side 2 forced transition at x/c =  1.0001   69

   5   rms: 0.5369E-04   max: 0.5785E-03   D at    2  1
       a =  8.000      CL =  2.0140
      Cm = -0.2630     CD =  0.01987   =>   CDf =  0.00621    CDp =  0.01367

 Point added to stored polar  1
 Point written to save file  000090M0.04.log                                 
 Dump file unspecified or not available
 Calculating wake trajectory ...
 Calculating source influence matrix ...

 Solving BL system ...

 Side 1  free  transition at x/c =  0.4918   63
 Side 2 forced transition at x/c =  1.0001   69

   1   rms: 0.1592E+00   max: -.8674E+00   T at    2  1   RLX: 0.576
       a =  9.000      CL =  2.0557
      Cm = -0.2589     CD =  0.02058   =>   CDf =  0.00622    CDp =  0.01436

 MRCHDU: Convergence failed at  63  side 1    Res =  0.1804E+01
 MRCHDU: Convergence failed at  64  side 1    Res =  0.3226E+01
 MRCHDU: Convergence failed at  65  side 1    Res =  0.2900E+01
 MRCHDU: Convergence failed at  66  side 1    Res =  0.3223E+01
 MRCHDU: Convergence failed at  67  side 1    Res =  0.3401E+01
 MRCHDU: Convergence failed at  68  side 1    Res =  0.3564E+01
 MRCHDU: Convergence failed at  69  side 1    Res =  0.3806E+01
 MRCHDU: Convergence failed at  70  side 1    Res =  0.4178E+01
 MRCHDU: Convergence failed at  71  side 1    Res =  0.4725E+01
 MRCHDU: Convergence failed at  72  side 1    Res =  0.5523E+01
 MRCHDU: Convergence failed at  73  side 1    Res =  0.6602E+01
 MRCHDU: Convergence failed at  74  side 1    Res =  0.8168E+01
 MRCHDU: Convergence failed at  75  side 1    Res =  0.1123E+02
 MRCHDU: Convergence failed at  76  side 1    Res =  0.1696E+02
 MRCHDU: Convergence failed at  77  side 1    Res =  0.3380E+02
 MRCHDU: Convergence failed at  78  side 1    Res =  0.7690E+03
 MRCHDU: Convergence failed at  79  side 1    Res =  0.2761E+02
 MRCHDU: Convergence failed at  80  side 1    Res =  0.1439E+02
 MRCHDU: Convergence failed at  81  side 1    Res =  0.1786E+02
 MRCHDU: Convergence failed at  82  side 1    Res =  0.3537E+02
 MRCHDU: Convergence failed at  83  side 1    Res =  0.1449E+02
 MRCHDU: Convergence failed at  84  side 1    Res =  0.1900E+02
 MRCHDU: Convergence failed at  85  side 1    Res =  0.3296E+02
 MRCHDU: Convergence failed at  86  side 1    Res =  0.3505E+02
 MRCHDU: Convergence failed at  87  side 1    Res =  0.1726E+02
 MRCHDU: Convergence failed at  88  side 1    Res =  0.1993E+02
 MRCHDU: Convergence failed at  89  side 1    Res =  0.5388E+02
 MRCHDU: Convergence failed at  90  side 1    Res =  0.1968E+03
 MRCHDU: Convergence failed at  91  side 1    Res =  0.2796E+02
 MRCHDU: Convergence failed at  92  side 1    Res =  0.1722E+02
 MRCHDU: Convergence failed at  93  side 1    Res =  0.1430E+02
 Side 1  free  transition at x/c =  0.4772   62
 Side 2 forced transition at x/c =  1.0001   69

   2   rms: 0.8729E+00   max: 0.3732E+01   D at   72  2   RLX: 0.402
       a =  9.000      CL =  2.3968
      Cm = -0.4404     CD =  0.00711   =>   CDf =  0.00343    CDp =  0.00368

 MRCHDU: Convergence failed at  71  side 2    Res =  0.4211E+02
 MRCHDU: Convergence failed at  72  side 2    Res =  0.1823E+01
 MRCHDU: Convergence failed at  73  side 2    Res =  0.3179E+01
 MRCHDU: Convergence failed at  74  side 2    Res =  0.3721E+02
 Side 1  free  transition at x/c =  0.4568   62
 Side 2 forced transition at x/c =  1.0001   68

   3   rms: 0.2494E+00   max: 0.5505E+00   D at   74  2   RLX: 0.854
       a =  9.000      CL =  2.1343
      Cm = -0.2769     CD =  0.01734   =>   CDf =  0.00745    CDp =  0.00989

 Side 1  free  transition at x/c =  0.4624   62
 Side 2 forced transition at x/c =  1.0001   68

   4   rms: 0.7664E-01   max: -.5401E+00   D at   85  1   RLX: 0.926
       a =  9.000      CL =  2.1285
      Cm = -0.2636     CD =  0.01946   =>   CDf =  0.00627    CDp =  0.01319

 MRCHDU: Convergence failed at  91  side 1    Res =  0.1973E+01
 MRCHDU: Convergence failed at  92  side 1    Res =  0.7048E+01
 Side 1  free  transition at x/c =  0.4571   62
 Side 2 forced transition at x/c =  1.0001   68

   5   rms: 0.6662E-01   max: 0.3283E+00   D at   77  2
       a =  9.000      CL =  2.0887
      Cm = -0.2567     CD =  0.02098   =>   CDf =  0.00615    CDp =  0.01484

 Side 1  free  transition at x/c =  0.4602   62
 Side 2 forced transition at x/c =  1.0001   68

   6   rms: 0.2330E-01   max: 0.1203E+00   D at   70  2
       a =  9.000      CL =  2.0667
      Cm = -0.2524     CD =  0.02164   =>   CDf =  0.00607    CDp =  0.01558

 Side 1  free  transition at x/c =  0.4621   62
 Side 2 forced transition at x/c =  1.0001   68

   7   rms: 0.2043E-02   max: -.2086E-01   D at   71  2
       a =  9.000      CL =  2.0680
      Cm = -0.2527     CD =  0.02165   =>   CDf =  0.00604    CDp =  0.01560

 Side 1  free  transition at x/c =  0.4621   62
 Side 2 forced transition at x/c =  1.0001   68

   8   rms: 0.5724E-04   max: -.3179E-03   D at   71  2
       a =  9.000      CL =  2.0680
      Cm = -0.2527     CD =  0.02165   =>   CDf =  0.00604    CDp =  0.01560

 Point added to stored polar  1
 Point written to save file  000090M0.04.log                                 
 Dump file unspecified or not available
 Calculating wake trajectory ...
 Calculating source influence matrix ...

 Solving BL system ...

 Side 1  free  transition at x/c =  0.4620   62
 Side 2 forced transition at x/c =  1.0001   68

   1   rms: 0.1301E+00   max: 0.5603E+00   T at   62  1
       a = 10.000      CL =  2.1006
      Cm = -0.2391     CD =  0.02397   =>   CDf =  0.00606    CDp =  0.01791

 Side 1  free  transition at x/c =  0.4305   60
 Side 2 forced transition at x/c =  1.0001   68

   2   rms: 0.2617E-01   max: 0.3610E+00   D at   61  1
       a = 10.000      CL =  2.1078
      Cm = -0.2411     CD =  0.02453   =>   CDf =  0.00596    CDp =  0.01857

 Side 1  free  transition at x/c =  0.4323   60
 Side 2 forced transition at x/c =  1.0001   68

   3   rms: 0.2788E-02   max: 0.2861E-01   C at   60  1
       a = 10.000      CL =  2.1094
      Cm = -0.2413     CD =  0.02442   =>   CDf =  0.00584    CDp =  0.01858

 Side 1  free  transition at x/c =  0.4310   60
 Side 2 forced transition at x/c =  1.0001   68

   4   rms: 0.8010E-04   max: -.8128E-03   C at   60  1
       a = 10.000      CL =  2.1093
      Cm = -0.2413     CD =  0.02442   =>   CDf =  0.00586    CDp =  0.01856

 Point added to stored polar  1
 Point written to save file  000090M0.04.log                                 
 Dump file unspecified or not available
 Calculating wake trajectory ...
 Calculating source influence matrix ...

 Solving BL system ...

 Side 1  free  transition at x/c =  0.4310   60
 Side 2 forced transition at x/c =  1.0001   68

   1   rms: 0.1299E+00   max: 0.4247E+00   T at   60  1
       a = 11.000      CL =  2.1466
      Cm = -0.2303     CD =  0.02786   =>   CDf =  0.00552    CDp =  0.02234

 Side 1  free  transition at x/c =  0.3896   59
 Side 2 forced transition at x/c =  1.0001   67

   2   rms: 0.2951E-01   max: 0.3973E+00   D at   60  1
       a = 11.000      CL =  2.1349
      Cm = -0.2292     CD =  0.02896   =>   CDf =  0.00587    CDp =  0.02309

 Side 1  free  transition at x/c =  0.3997   59
 Side 2 forced transition at x/c =  1.0001   67

   3   rms: 0.7609E-02   max: 0.4789E-01   C at   59  1
       a = 11.000      CL =  2.1410
      Cm = -0.2300     CD =  0.02859   =>   CDf =  0.00558    CDp =  0.02300

 Side 1  free  transition at x/c =  0.3966   59
 Side 2 forced transition at x/c =  1.0001   67

   4   rms: 0.3395E-03   max: -.5092E-02   C at   59  1
       a = 11.000      CL =  2.1410
      Cm = -0.2300     CD =  0.02860   =>   CDf =  0.00561    CDp =  0.02299

 Side 1  free  transition at x/c =  0.3967   59
 Side 2 forced transition at x/c =  1.0001   67

   5   rms: 0.1045E-04   max: 0.4526E-04   C at   67  2
       a = 11.000      CL =  2.1410
      Cm = -0.2300     CD =  0.02860   =>   CDf =  0.00561    CDp =  0.02299

 Point added to stored polar  1
 Point written to save file  000090M0.04.log                                 
 Dump file unspecified or not available
 Calculating wake trajectory ...
 Calculating source influence matrix ...

 Solving BL system ...

 Side 1  free  transition at x/c =  0.3967   59
 Side 2 forced transition at x/c =  1.0001   67

   1   rms: 0.1318E+00   max: 0.3941E+00   D at   85  1   RLX: 0.926
       a = 12.000      CL =  2.1660
      Cm = -0.2201     CD =  0.03339   =>   CDf =  0.00526    CDp =  0.02813

 Side 1  free  transition at x/c =  0.3432   57
 Side 2 forced transition at x/c =  1.0001   66

   2   rms: 0.3652E-01   max: 0.2466E+00   D at   87  1
       a = 12.000      CL =  2.1474
      Cm = -0.2176     CD =  0.03567   =>   CDf =  0.00566    CDp =  0.03001

 Side 1  free  transition at x/c =  0.3519   57
 Side 2 forced transition at x/c =  1.0001   66

   3   rms: 0.4682E-02   max: -.6696E-01   D at   59  1
       a = 12.000      CL =  2.1486
      Cm = -0.2177     CD =  0.03553   =>   CDf =  0.00543    CDp =  0.03010

 Side 1  free  transition at x/c =  0.3493   57
 Side 2 forced transition at x/c =  1.0001   66

   4   rms: 0.1710E-03   max: -.2220E-02   C at   57  1
       a = 12.000      CL =  2.1485
      Cm = -0.2177     CD =  0.03555   =>   CDf =  0.00545    CDp =  0.03010

 Side 1  free  transition at x/c =  0.3493   57
 Side 2 forced transition at x/c =  1.0001   66

   5   rms: 0.4121E-05   max: -.1636E-04   D at   83  1
       a = 12.000      CL =  2.1485
      Cm = -0.2177     CD =  0.03555   =>   CDf =  0.00545    CDp =  0.03010

 Point added to stored polar  1
 Point written to save file  000090M0.04.log                                 
 Dump file unspecified or not available
 Calculating wake trajectory ...
 Calculating source influence matrix ...

 Solving BL system ...

 Side 1  free  transition at x/c =  0.3493   57
 Side 2 forced transition at x/c =  1.0001   66

   1   rms: 0.1392E+00   max: 0.5138E+00   C at   57  1   RLX: 0.758
       a = 13.000      CL =  2.1574
      Cm = -0.2102     CD =  0.04167   =>   CDf =  0.00508    CDp =  0.03658

 Side 1  free  transition at x/c =  0.2717   53
 Side 2 forced transition at x/c =  1.0001   65

   2   rms: 0.7096E-01   max: 0.4961E+00   D at   84  1
       a = 13.000      CL =  2.1128
      Cm = -0.2047     CD =  0.04876   =>   CDf =  0.00583    CDp =  0.04293

 Side 1  free  transition at x/c =  0.2699   53
 Side 2 forced transition at x/c =  1.0001   65

   3   rms: 0.9742E-02   max: 0.1102E+00   D at   82  1
       a = 13.000      CL =  2.1088
      Cm = -0.2045     CD =  0.04895   =>   CDf =  0.00558    CDp =  0.04337

 Side 1  free  transition at x/c =  0.2714   53
 Side 2 forced transition at x/c =  1.0001   65

   4   rms: 0.7923E-03   max: 0.1025E-01   D at   78  2
       a = 13.000      CL =  2.1085
      Cm = -0.2044     CD =  0.04888   =>   CDf =  0.00556    CDp =  0.04333

 Side 1  free  transition at x/c =  0.2717   53
 Side 2 forced transition at x/c =  1.0001   65

   5   rms: 0.7833E-05   max: -.8718E-04   D at   80  2
       a = 13.000      CL =  2.1085
      Cm = -0.2044     CD =  0.04888   =>   CDf =  0.00555    CDp =  0.04333

 Point added to stored polar  1
 Point written to save file  000090M0.04.log                                 
 Dump file unspecified or not available
 Calculating wake trajectory ...
 Calculating source influence matrix ...

 Solving BL system ...

 Side 1  free  transition at x/c =  0.2717   53
 Side 2 forced transition at x/c =  1.0001   65

   1   rms: 0.1957E+00   max: 0.2502E+01   C at   53  1   RLX: 0.581
       a = 14.000      CL =  2.0860
      Cm = -0.1987     CD =  0.05849   =>   CDf =  0.00557    CDp =  0.05292

 Side 1  free  transition at x/c =  0.1745   47
 Side 2 forced transition at x/c =  1.0001   65

   2   rms: 0.1143E+00   max: 0.7675E+00   D at   79  1
       a = 14.000      CL =  2.0142
      Cm = -0.1937     CD =  0.07345   =>   CDf =  0.00631    CDp =  0.06714

 Side 1  free  transition at x/c =  0.1594   46
 Side 2 forced transition at x/c =  1.0001   65

   3   rms: 0.2683E-01   max: -.3341E+00   C at   46  1
       a = 14.000      CL =  2.0056
      Cm = -0.1934     CD =  0.07334   =>   CDf =  0.00610    CDp =  0.06723

 Side 1  free  transition at x/c =  0.1668   47
 Side 2 forced transition at x/c =  1.0001   65

   4   rms: 0.3518E-02   max: -.5971E-01   C at   47  1
       a = 14.000      CL =  2.0054
      Cm = -0.1932     CD =  0.07292   =>   CDf =  0.00597    CDp =  0.06695

 Side 1  free  transition at x/c =  0.1681   47
 Side 2 forced transition at x/c =  1.0001   65

   5   rms: 0.7476E-04   max: 0.1119E-02   D at   80  2
       a = 14.000      CL =  2.0054
      Cm = -0.1932     CD =  0.07291   =>   CDf =  0.00595    CDp =  0.06696

 Point added to stored polar  1
 Point written to save file  000090M0.04.log                                 
 Dump file unspecified or not available
 Calculating wake trajectory ...
 Calculating source influence matrix ...

 Solving BL system ...

 Side 1  free  transition at x/c =  0.1681   47
 Side 2 forced transition at x/c =  1.0001   65

   1   rms: 0.2618E+00   max: 0.3401E+01   C at   47  1   RLX: 0.437
       a = 15.000      CL =  1.9563
      Cm = -0.1905     CD =  0.08686   =>   CDf =  0.00597    CDp =  0.08089

 Side 1  free  transition at x/c =  0.1364   44
 Side 2 forced transition at x/c =  1.0001   65

   2   rms: 0.1229E+00   max: 0.1854E+01   C at   44  1   RLX: 0.809
       a = 15.000      CL =  1.9339
      Cm = -0.1885     CD =  0.09601   =>   CDf =  0.00607    CDp =  0.08994

 Side 1  free  transition at x/c =  0.1042   42
 Side 2 forced transition at x/c =  1.0001   65

   3   rms: 0.3135E-01   max: 0.2533E+00   D at   71  1
       a = 15.000      CL =  1.9193
      Cm = -0.1885     CD =  0.09902   =>   CDf =  0.00624    CDp =  0.09278

 Side 1  free  transition at x/c =  0.1032   42
 Side 2 forced transition at x/c =  1.0001   65

   4   rms: 0.4030E-02   max: 0.3813E-01   D at   70  1
       a = 15.000      CL =  1.9173
      Cm = -0.1882     CD =  0.09826   =>   CDf =  0.00614    CDp =  0.09212

 Side 1  free  transition at x/c =  0.1036   42
 Side 2 forced transition at x/c =  1.0001   65

   5   rms: 0.1551E-03   max: 0.1285E-02   D at   82  2
       a = 15.000      CL =  1.9172
      Cm = -0.1882     CD =  0.09817   =>   CDf =  0.00613    CDp =  0.09204

 Side 1  free  transition at x/c =  0.1036   42
 Side 2 forced transition at x/c =  1.0001   65

   6   rms: 0.1618E-04   max: -.1298E-03   D at   83  2
       a = 15.000      CL =  1.9173
      Cm = -0.1882     CD =  0.09817   =>   CDf =  0.00613    CDp =  0.09204

 Point added to stored polar  1
 Point written to save file  000090M0.04.log                                 
 Dump file unspecified or not available

.OPERva   c>  
 XFOIL   c>  
0.1
resp: 
 ===================================================
  XFOIL Version 6.97
  Copyright (C) 2000   Mark Drela, Harold Youngren

  This software comes with ABSOLUTELY NO WARRANTY,
    subject to the GNU General Public License.

  Caveat computor
 ===================================================

 File  xfoil.def  not found

   QUIT    Exit program

  .OPER    Direct operating point(s)
  .MDES    Complex mapping design routine
  .QDES    Surface speed design routine
  .GDES    Geometry design routine

   SAVE f  Write airfoil to labeled coordinate file
   PSAV f  Write airfoil to plain coordinate file
   ISAV f  Write airfoil to ISES coordinate file
   MSAV f  Write airfoil to MSES coordinate file
   REVE    Reverse written-airfoil node ordering
   DELI i  Change written-airfoil file delimiters

   LOAD f  Read buffer airfoil from coordinate file
   NACA i  Set NACA 4,5-digit airfoil and buffer airfoil
   INTE    Set buffer airfoil by interpolating two airfoils
   NORM    Buffer airfoil normalization toggle
   HALF    Halve the number of points in buffer airfoil
   XYCM rr Change CM reference location, currently  0.25000 0.00000

   BEND    Display structural properties of current airfoil

   PCOP    Set current-airfoil panel nodes directly from buffer airfoil points
   PANE    Set current-airfoil panel nodes ( 160 ) based on curvature
  .PPAR    Show/change paneling

  .PLOP    Plotting options

   WDEF f  Write  current-settings file
   RDEF f  Reread current-settings file
   NAME s  Specify new airfoil name
   NINC    Increment name version number

   Z       Zoom    | (available in all menus)
   U       Unzoom  | 

 XFOIL   c>   ...............................................

  G raphics-enable flag:        T
  S ize of plot object          10.00"
  A spect ratio of plot object   0.5500
  P age dimensions              11.00 x  8.50"
  M argins from page edges       0.00",  0.00"
  F ont size (relative)          0.0150
  W indow/screen size fraction   0.8000
  B lowup input method:        Cursor    
  O rientation of plot:        Landscape 
  C olor PostScript output?     F

      Option, Value   (or <Return>)    c>   ...............................................

  G raphics-enable flag:        F
  S ize of plot object          10.00"
  A spect ratio of plot object   0.5500
  P age dimensions              11.00 x  8.50"
  M argins from page edges       0.00",  0.00"
  F ont size (relative)          0.0150
  W indow/screen size fraction   0.8000
  B lowup input method:        Cursor    
  O rientation of plot:        Landscape 
  C olor PostScript output?     F

      Option, Value   (or <Return>)    c>  
 XFOIL   c>  
 Labeled airfoil file.  Name:  000090                                          

 Number of input coordinate points: 200
 Clockwise ordering
 Max thickness =     0.114167  at x =   0.194
 Max camber    =     0.100279  at x =   0.469

  LE  x,y  =  -0.00000   0.00042  |   Chord =   0.99988
  TE  x,y  =   0.99988   0.00006  |

 Current airfoil nodes set from buffer airfoil nodes ( 200 )

 XFOIL   c>  
 You are working with the buffer airfoil

.GDES   c>  
  i       x        y      angle
   2   0.9990   0.0005    0.053
   3   0.9978   0.0011    0.103
   4   0.9961   0.0019    0.113
   5   0.9938   0.0029    0.143
   6   0.9911   0.0042    0.167
   7   0.9880   0.0056    0.178
   8   0.9843   0.0073    0.234
   9   0.9801   0.0092    0.236
  10   0.9755   0.0113    0.266
  11   0.9704   0.0135    0.272
  12   0.9649   0.0159    0.310
  13   0.9589   0.0185    0.313
  14   0.9524   0.0213    0.345
  15   0.9455   0.0242    0.340
  16   0.9382   0.0272    0.355
  17   0.9304   0.0303    0.375
  18   0.9222   0.0335    0.380
  19   0.9135   0.0369    0.388
  20   0.9045   0.0403    0.390
  21   0.8951   0.0438    0.398
  22   0.8853   0.0474    0.395
  23   0.8751   0.0510    0.406
  24   0.8645   0.0547    0.404
  25   0.8536   0.0585    0.399
  26   0.8423   0.0622    0.404
  27   0.8307   0.0660    0.404
  28   0.8187   0.0698    0.398
  29   0.8065   0.0736    0.404
  30   0.7939   0.0774    0.399
  31   0.7810   0.0812    0.406
  32   0.7679   0.0849    0.402
  33   0.7545   0.0887    0.407
  34   0.7409   0.0924    0.414
  35   0.7270   0.0960    0.414
  36   0.7129   0.0996    0.429
  37   0.6986   0.1032    0.435
  38   0.6841   0.1067    0.441
  39   0.6694   0.1101    0.465
  40   0.6545   0.1134    0.472
  41   0.6395   0.1166    0.492
  42   0.6243   0.1197    0.516
  43   0.6091   0.1227    0.536
  44   0.5937   0.1256    0.557
  45   0.5782   0.1283    0.592
  46   0.5627   0.1309    0.613
  47   0.5471   0.1333    0.645
  48   0.5314   0.1356    0.683
  49   0.5157   0.1376    0.707
  50   0.5000   0.1395    0.746
  51   0.4843   0.1412    0.786
  52   0.4686   0.1426    0.811
  53   0.4529   0.1438    0.856
  54   0.4373   0.1448    0.889
  55   0.4218   0.1455    0.922
  56   0.4063   0.1460    0.957
  57   0.3909   0.1462    0.988
  58   0.3757   0.1462    1.022
  59   0.3605   0.1459    1.044
  60   0.3455   0.1453    1.080
  61   0.3306   0.1444    1.094
  62   0.3159   0.1433    1.121
  63   0.3014   0.1419    1.136
  64   0.2871   0.1402    1.146
  65   0.2730   0.1382    1.162
  66   0.2591   0.1361    1.166
  67   0.2455   0.1336    1.173
  68   0.2321   0.1309    1.164
  69   0.2190   0.1280    1.174
  70   0.2061   0.1249    1.168
  71   0.1935   0.1216    1.157
  72   0.1813   0.1181    1.154
  73   0.1693   0.1144    1.148
  74   0.1577   0.1105    1.137
  75   0.1464   0.1066    1.137
  76   0.1355   0.1025    1.125
  77   0.1249   0.0982    1.133
  78   0.1147   0.0940    1.140
  79   0.1049   0.0896    1.145
  80   0.0955   0.0852    1.172
  81   0.0865   0.0807    1.192
  82   0.0778   0.0762    1.238
  83   0.0696   0.0717    1.302
  84   0.0618   0.0672    1.363
  85   0.0545   0.0628    1.461
  86   0.0476   0.0583    1.586
  87   0.0411   0.0539    1.738
  88   0.0351   0.0495    1.918
  89   0.0296   0.0451    2.156
  90   0.0245   0.0408    2.436
  91   0.0199   0.0366    2.774
  92   0.0157   0.0323    3.187
  93   0.0120   0.0282    3.646
  94   0.0089   0.0241    4.213
  95   0.0062   0.0200    4.813
  96   0.0039   0.0159    5.451
  97   0.0022   0.0119    6.084
  98   0.0010   0.0079    6.614
  99   0.0002   0.0040    6.983
 100   0.0000   0.0000    9.055
 101   0.0002  -0.0026   10.769
 102   0.0010  -0.0051   10.230
 103   0.0022  -0.0076    9.473
 104   0.0039  -0.0100    8.548
 105   0.0062  -0.0122    7.652
 106   0.0089  -0.0143    6.827
 107   0.0120  -0.0162    6.015
 108   0.0157  -0.0179    5.344
 109   0.0199  -0.0194    4.703
 110   0.0245  -0.0206    4.185
 111   0.0296  -0.0216    3.697
 112   0.0351  -0.0223    3.276
 113   0.0411  -0.0227    2.902
 114   0.0476  -0.0228    2.561
 115   0.0545  -0.0226    2.256
 116   0.0618  -0.0221    1.983
 117   0.0696  -0.0213    1.735
 118   0.0778  -0.0202    1.515
 119   0.0865  -0.0188    1.295
 120   0.0955  -0.0171    1.110
 121   0.1049  -0.0152    0.937
 122   0.1147  -0.0130    0.772
 123   0.1249  -0.0106    0.617
 124   0.1355  -0.0080    0.484
 125   0.1464  -0.0052    0.356
 126   0.1577  -0.0022    0.230
 127   0.1693   0.0009    0.120
 128   0.1813   0.0041    0.023
 129   0.1935   0.0074   -0.084
 130   0.2061   0.0108   -0.162
 131   0.2190   0.0142   -0.252
 132   0.2321   0.0176   -0.319
 133   0.2455   0.0210   -0.388
 134   0.2591   0.0244   -0.456
 135   0.2730   0.0277   -0.506
 136   0.2871   0.0310   -0.554
 137   0.3014   0.0341   -0.597
 138   0.3159   0.0371   -0.632
 139   0.3306   0.0400   -0.666
 140   0.3455   0.0428   -0.688
 141   0.3605   0.0454   -0.707
 142   0.3757   0.0478   -0.720
 143   0.3909   0.0501   -0.734
 144   0.4063   0.0521   -0.730
 145   0.4218   0.0540   -0.739
 146   0.4373   0.0557   -0.729
 147   0.4529   0.0572   -0.724
 148   0.4686   0.0585   -0.714
 149   0.4843   0.0596   -0.705
 150   0.5000   0.0605   -0.688
 151   0.5157   0.0612   -0.668
 152   0.5314   0.0617   -0.658
 153   0.5471   0.0621   -0.638
 154   0.5627   0.0622   -0.620
 155   0.5782   0.0622   -0.603
 156   0.5937   0.0621   -0.584
 157   0.6091   0.0618   -0.567
 158   0.6243   0.0613   -0.554
 159   0.6395   0.0607   -0.535
 160   0.6545   0.0600   -0.528
 161   0.6694   0.0591   -0.516
 162   0.6841   0.0581   -0.500
 163   0.6986   0.0570   -0.501
 164   0.7129   0.0558   -0.483
 165   0.7270   0.0545   -0.486
 166   0.7409   0.0531   -0.483
 167   0.7545   0.0516   -0.472
 168   0.7679   0.0500   -0.478
 169   0.7810   0.0483   -0.475
 170   0.7939   0.0465   -0.476
 171   0.8065   0.0447   -0.479
 172   0.8187   0.0429   -0.478
 173   0.8307   0.0409   -0.483
 174   0.8423   0.0390   -0.477
 175   0.8536   0.0369   -0.483
 176   0.8645   0.0349   -0.487
 177   0.8751   0.0328   -0.479
 178   0.8853   0.0307   -0.474
 179   0.8951   0.0286   -0.484
 180   0.9045   0.0265   -0.474
 181   0.9135   0.0244   -0.461
 182   0.9222   0.0224   -0.461
 183   0.9304   0.0203   -0.446
 184   0.9382   0.0183   -0.429
 185   0.9455   0.0164   -0.426
 186   0.9524   0.0145   -0.412
 187   0.9589   0.0127   -0.376
 188   0.9649   0.0110   -0.379
 189   0.9704   0.0094   -0.326
 190   0.9755   0.0078   -0.329
 191   0.9801   0.0064   -0.295
 192   0.9843   0.0051   -0.265
 193   0.9880   0.0039   -0.219
 194   0.9911   0.0029   -0.218
 195   0.9938   0.0020   -0.180
 196   0.9961   0.0013   -0.122
 197   0.9978   0.0007   -0.093
 198   0.9990   0.0003   -0.079
 199   0.9998   0.0001   -0.046

 Maximum panel corner angle = 10.769   at  i,x,y  = 101   0.0002  -0.0026

 Enter corner angle criterion for refinement (deg):   5.385
 Enter type of spline parameter (1=uniform, 2=arclength):   1
 Enter refinement x limits:  -0.10000   1.10000
 Number of points added:           24
 Max thickness =     0.114153  at x =   0.194
 Max camber    =     0.100504  at x =   0.469

 Maximum panel corner angle =  4.703   at  i,x,y  = 133   0.0199  -0.0194

.GDES   c>  
 Buffer airfoil is not identical to current airfoil

 XFOIL   c>  
 Blunt trailing edge.  Gap =  0.00027

 Paneling parameters used...
   Number of panel nodes       160
   Panel bunching parameter    1.000
   TE/LE panel density ratio   0.150
   Refined-area/LE panel density ratio    0.200
   Top    side refined area x/c limits  1.000 1.000
   Bottom side refined area x/c limits  1.000 1.000

 XFOIL   c>  
.OPERi   c>   Current iteration limit:          20

Enter new iteration limit   i>  
Enter new iteration limit   i>  
Enter new iteration limit   i>  
.OPERi   c>  
 M  =    0.0000
 Re =  0.3000E+06

.OPERv   c>  
 Sonic Cp =    -66.86      Sonic Q/Qinf =     9.138


.OPERv   c>  
 Polar  1 newly created for accumulation
 Airfoil archived with polar: 000090                                          

Enter  polar save filename  OR  <return> for no file   s>  
 New polar save file available

Enter  polar dump filename  OR  <return> for no file   s>  
 Polar dump file will NOT be written

 Polar accumulation enabled

.OPERva   c>   Calculating unit vorticity distributions ...
 Calculating wake trajectory ...
 Calculating source influence matrix ...

 Solving BL system ...

 Initializing BL ...
    side            1  ...
 MRCHUE: Inverse mode at  53     Hk =   4.238
 MRCHUE: Inverse mode at  54     Hk =   4.967
 MRCHUE: Inverse mode at  55     Hk =   5.682
 MRCHUE: Inverse mode at  56     Hk =   6.387
 MRCHUE: Inverse mode at  57     Hk =   7.085
 MRCHUE: Inverse mode at  58     Hk =   7.778
 MRCHUE: Inverse mode at  59     Hk =   8.466
 MRCHUE: Inverse mode at  60     Hk =   9.151
 MRCHUE: Inverse mode at  61     Hk =   6.593
 MRCHUE: Inverse mode at  62     Hk =   4.511
 MRCHUE: Inverse mode at  63     Hk =   3.144
 MRCHUE: Inverse mode at  86     Hk =   2.500
    side            2  ...
 MRCHUE: Inverse mode at  24     Hk =   4.076
 MRCHUE: Inverse mode at  25     Hk =   5.002
 MRCHUE: Inverse mode at  26     Hk =   5.932
 MRCHUE: Inverse mode at  27     Hk =   6.867
 MRCHUE: Inverse mode at  28     Hk =   7.799
 MRCHUE: Inverse mode at  29     Hk =   8.712
 MRCHUE: Inverse mode at  30     Hk =   9.595
 MRCHUE: Inverse mode at  31     Hk =   7.438
 MRCHUE: Inverse mode at  32     Hk =   4.738
 MRCHUE: Inverse mode at  33     Hk =   3.168

 Side 1  free  transition at x/c =  0.5783   61
 Side 2  free  transition at x/c =  0.2256   31

   1   rms: 0.1780E+00   max: -.7959E+00   T at   61  1   RLX: 0.628
       a =  2.000      CL =  1.4601
      Cm = -0.2842     CD =  0.01546   =>   CDf =  0.00820    CDp =  0.00727

 Side 1  free  transition at x/c =  0.5909   60
 Side 2  free  transition at x/c =  0.2162   31

   2   rms: 0.8728E-01   max: -.6633E+00   D at   62  1   RLX: 0.754
       a =  2.000      CL =  1.4382
      Cm = -0.2788     CD =  0.01696   =>   CDf =  0.00801    CDp =  0.00894

 MRCHDU: Convergence failed at  62  side 1    Res =  0.3990E+01
 MRCHDU: Convergence failed at  63  side 1    Res =  0.2234E+01
 MRCHDU: Convergence failed at  64  side 1    Res =  0.3599E+01
 MRCHDU: Convergence failed at  65  side 1    Res =  0.5299E+01
 MRCHDU: Convergence failed at  66  side 1    Res =  0.7393E+01
 MRCHDU: Convergence failed at  67  side 1    Res =  0.9914E+01
 MRCHDU: Convergence failed at  68  side 1    Res =  0.1257E+02
 MRCHDU: Convergence failed at  69  side 1    Res =  0.1524E+02
 MRCHDU: Convergence failed at  70  side 1    Res =  0.1744E+02
 MRCHDU: Convergence failed at  71  side 1    Res =  0.1846E+02
 MRCHDU: Convergence failed at  72  side 1    Res =  0.1851E+02
 MRCHDU: Convergence failed at  73  side 1    Res =  0.1788E+02
 MRCHDU: Convergence failed at  74  side 1    Res =  0.1660E+02
 MRCHDU: Convergence failed at  75  side 1    Res =  0.1509E+02
 MRCHDU: Convergence failed at  76  side 1    Res =  0.1354E+02
 MRCHDU: Convergence failed at  77  side 1    Res =  0.1221E+02
 MRCHDU: Convergence failed at  78  side 1    Res =  0.8049E+01
 MRCHDU: Convergence failed at  79  side 1    Res =  0.9846E+01
 MRCHDU: Convergence failed at  80  side 1    Res =  0.1272E+02
 MRCHDU: Convergence failed at  81  side 1    Res =  0.1823E+02
 MRCHDU: Convergence failed at  82  side 1    Res =  0.2736E+02
 MRCHDU: Convergence failed at  83  side 1    Res =  0.6141E+02
 MRCHDU: Convergence failed at  84  side 1    Res =  0.3610E+03
 MRCHDU: Convergence failed at  85  side 1    Res =  0.5438E+02
 Side 1  free  transition at x/c =  0.6104   62
 Side 2  free  transition at x/c =  0.2132   31

   3   rms: 0.5638E+00   max: 0.2401E+01   D at   79  2   RLX: 0.625
       a =  2.000      CL =  1.4887
      Cm = -0.3347     CD =  0.00799   =>   CDf =  0.00575    CDp =  0.00224

 Side 1  free  transition at x/c =  0.5984   61
 Side 2  free  transition at x/c =  0.2044   31

   4   rms: 0.1388E+00   max: -.4528E+00   D at   78  2   RLX: 0.669
       a =  2.000      CL =  1.4149
      Cm = -0.2842     CD =  0.01533   =>   CDf =  0.00788    CDp =  0.00745

 Side 1  free  transition at x/c =  0.6065   61
 Side 2  free  transition at x/c =  0.2055   31

   5   rms: 0.7272E-01   max: 0.4349E+00   D at   85  1
       a =  2.000      CL =  1.4333
      Cm = -0.2776     CD =  0.01475   =>   CDf =  0.00794    CDp =  0.00680

 Side 1  free  transition at x/c =  0.6089   61
 Side 2  free  transition at x/c =  0.2106   31

   6   rms: 0.1877E-01   max: -.1155E+00   D at   85  1
       a =  2.000      CL =  1.4186
      Cm = -0.2746     CD =  0.01506   =>   CDf =  0.00766    CDp =  0.00740

 Side 1  free  transition at x/c =  0.6084   61
 Side 2  free  transition at x/c =  0.2092   31

   7   rms: 0.1279E-02   max: -.1256E-01   D at   85  1
       a =  2.000      CL =  1.4176
      Cm = -0.2744     CD =  0.01506   =>   CDf =  0.00766    CDp =  0.00740

 Side 1  free  transition at x/c =  0.6084   61
 Side 2  free  transition at x/c =  0.2091   31

   8   rms: 0.1216E-04   max: -.1367E-03   D at   85  1
       a =  2.000      CL =  1.4176
      Cm = -0.2744     CD =  0.01506   =>   CDf =  0.00766    CDp =  0.00740

 Point added to stored polar  1
 Point written to save file  000090M0.1.log                                  
 Dump file unspecified or not available
 Calculating wake trajectory ...
 Calculating source influence matrix ...

 Solving BL system ...

 Side 1  free  transition at x/c =  0.6084   61
 Side 2  free  transition at x/c =  0.2091   31

   1   rms: 0.1624E+00   max: -.1108E+01   T at   31  2   RLX: 0.451
       a =  3.000      CL =  1.4644
      Cm = -0.2737     CD =  0.01526   =>   CDf =  0.00748    CDp =  0.00778

 Side 1  free  transition at x/c =  0.5980   62
 Side 2  free  transition at x/c =  0.2231   31

   2   rms: 0.9746E-01   max: -.7321E+00   T at   31  2   RLX: 0.683
       a =  3.000      CL =  1.5075
      Cm = -0.2739     CD =  0.01549   =>   CDf =  0.00764    CDp =  0.00785

 Side 1  free  transition at x/c =  0.5917   61
 Side 2  free  transition at x/c =  0.2343   31

   3   rms: 0.5648E-01   max: -.4043E+00   T at   31  2
       a =  3.000      CL =  1.5265
      Cm = -0.2737     CD =  0.01576   =>   CDf =  0.00773    CDp =  0.00803

 Side 1  free  transition at x/c =  0.5886   61
 Side 2  free  transition at x/c =  0.2463   32

   4   rms: 0.4590E-01   max: 0.6659E+00   D at   32  2
       a =  3.000      CL =  1.5280
      Cm = -0.2742     CD =  0.01557   =>   CDf =  0.00757    CDp =  0.00800

 Side 1  free  transition at x/c =  0.5887   61
 Side 2  free  transition at x/c =  0.2451   32

   5   rms: 0.9360E-02   max: 0.9548E-01   D at   32  2
       a =  3.000      CL =  1.5278
      Cm = -0.2741     CD =  0.01560   =>   CDf =  0.00759    CDp =  0.00801

 Side 1  free  transition at x/c =  0.5887   61
 Side 2  free  transition at x/c =  0.2436   32

   6   rms: 0.1529E-03   max: -.2511E-02   D at   34  2
       a =  3.000      CL =  1.5278
      Cm = -0.2741     CD =  0.01560   =>   CDf =  0.00760    CDp =  0.00800

 Side 1  free  transition at x/c =  0.5887   61
 Side 2  free  transition at x/c =  0.2435   32

   7   rms: 0.1251E-05   max: -.7721E-05   D at   81  2
       a =  3.000      CL =  1.5278
      Cm = -0.2741     CD =  0.01560   =>   CDf =  0.00760    CDp =  0.00800

 Point added to stored polar  1
 Point written to save file  000090M0.1.log                                  
 Dump file unspecified or not available
 Calculating wake trajectory ...
 Calculating source influence matrix ...

 Solving BL system ...

 Side 1  free  transition at x/c =  0.5887   61
 Side 2  free  transition at x/c =  0.2435   32

   1   rms: 0.1648E+00   max: -.1168E+01   T at   32  2   RLX: 0.428
       a =  4.000      CL =  1.5719
      Cm = -0.2735     CD =  0.01585   =>   CDf =  0.00740    CDp =  0.00844

 Side 1  free  transition at x/c =  0.5792   62
 Side 2  free  transition at x/c =  0.2605   32

   2   rms: 0.1011E+00   max: -.7609E+00   T at   32  2   RLX: 0.657
       a =  4.000      CL =  1.6142
      Cm = -0.2736     CD =  0.01615   =>   CDf =  0.00757    CDp =  0.00858

 Side 1  free  transition at x/c =  0.5735   61
 Side 2  free  transition at x/c =  0.2730   33

   3   rms: 0.1146E+00   max: -.8452E+00   T at   33  2   RLX: 0.592
       a =  4.000      CL =  1.6282
      Cm = -0.2739     CD =  0.01622   =>   CDf =  0.00766    CDp =  0.00856

 Side 1  free  transition at x/c =  0.5713   61
 Side 2  free  transition at x/c =  0.2827   33

   4   rms: 0.4342E-01   max: -.3180E+00   D at   33  2
       a =  4.000      CL =  1.6356
      Cm = -0.2735     CD =  0.01629   =>   CDf =  0.00732    CDp =  0.00898

 Side 1  free  transition at x/c =  0.5697   62
 Side 2  free  transition at x/c =  0.2881   32

   5   rms: 0.1615E-02   max: 0.1951E-01   T at   32  2
       a =  4.000      CL =  1.6357
      Cm = -0.2735     CD =  0.01630   =>   CDf =  0.00748    CDp =  0.00882

 Side 1  free  transition at x/c =  0.5697   62
 Side 2  free  transition at x/c =  0.2874   32

   6   rms: 0.2350E-03   max: -.2781E-02   D at    4  1
       a =  4.000      CL =  1.6357
      Cm = -0.2735     CD =  0.01631   =>   CDf =  0.00748    CDp =  0.00883

 Side 1  free  transition at x/c =  0.5697   62
 Side 2  free  transition at x/c =  0.2874   32

   7   rms: 0.2961E-05   max: 0.3045E-04   D at    4  1
       a =  4.000      CL =  1.6357
      Cm = -0.2735     CD =  0.01631   =>   CDf =  0.00748    CDp =  0.00883

 Point added to stored polar  1
 Point written to save file  000090M0.1.log                                  
 Dump file unspecified or not available
 Calculating wake trajectory ...
 Calculating source influence matrix ...

 Solving BL system ...

 Side 1  free  transition at x/c =  0.5697   62
 Side 2  free  transition at x/c =  0.2874   32

   1   rms: 0.1727E+00   max: -.1423E+01   T at   32  2   RLX: 0.351
       a =  5.000      CL =  1.6712
      Cm = -0.2729     CD =  0.01662   =>   CDf =  0.00749    CDp =  0.00913

 MRCHDU: Convergence failed at  34  side 2    Res =  0.2188E+02
 MRCHDU: Convergence failed at  35  side 2    Res =  0.4203E+01
 MRCHDU: Convergence failed at  36  side 2    Res =  0.1510E+02
 MRCHDU: Convergence failed at  37  side 2    Res =  0.3013E+03
 MRCHDU: Convergence failed at  38  side 2    Res =  0.3588E+02
 MRCHDU: Convergence failed at  39  side 2    Res =  0.2665E+02
 MRCHDU: Convergence failed at  40  side 2    Res =  0.2479E+02
 MRCHDU: Convergence failed at  41  side 2    Res =  0.2649E+02
 MRCHDU: Convergence failed at  42  side 2    Res =  0.3152E+02
 MRCHDU: Convergence failed at  43  side 2    Res =  0.3885E+02
 MRCHDU: Convergence failed at  44  side 2    Res =  0.5409E+02
 MRCHDU: Convergence failed at  45  side 2    Res =  0.1011E+03
 MRCHDU: Convergence failed at  46  side 2    Res =  0.1449E+04
 MRCHDU: Convergence failed at  47  side 2    Res =  0.1013E+03
 MRCHDU: Convergence failed at  48  side 2    Res =  0.4520E+02
 MRCHDU: Convergence failed at  49  side 2    Res =  0.2742E+02
 MRCHDU: Convergence failed at  50  side 2    Res =  0.1874E+02
 MRCHDU: Convergence failed at  51  side 2    Res =  0.1365E+02
 MRCHDU: Convergence failed at  52  side 2    Res =  0.9725E+01
 MRCHDU: Convergence failed at  53  side 2    Res =  0.7624E+01
 MRCHDU: Convergence failed at  54  side 2    Res =  0.6104E+01
 MRCHDU: Convergence failed at  55  side 2    Res =  0.4958E+01
 MRCHDU: Convergence failed at  56  side 2    Res =  0.4092E+01
 MRCHDU: Convergence failed at  57  side 2    Res =  0.3406E+01
 MRCHDU: Convergence failed at  58  side 2    Res =  0.2860E+01
 MRCHDU: Convergence failed at  59  side 2    Res =  0.2412E+01
 MRCHDU: Convergence failed at  60  side 2    Res =  0.2121E+01
 Side 1  free  transition at x/c =  0.5621   62
 Side 2  free  transition at x/c =  0.3103   34

   2   rms: 0.3295E+00   max: -.1657E+01   D at   61  2   RLX: 0.302
       a =  5.000      CL =  1.6685
      Cm = -0.2659     CD =  0.01620   =>   CDf =  0.00619    CDp =  0.01001

 Side 1  free  transition at x/c =  0.5590   62
 Side 2  free  transition at x/c =  0.3297   35

   3   rms: 0.9333E-01   max: -.6003E+00   D at   36  2   RLX: 0.833
       a =  5.000      CL =  1.7337
      Cm = -0.2723     CD =  0.01718   =>   CDf =  0.00735    CDp =  0.00984

 Side 1  free  transition at x/c =  0.5538   62
 Side 2  free  transition at x/c =  0.3500   35

   4   rms: 0.1705E-01   max: 0.1405E+00   D at   36  2
       a =  5.000      CL =  1.7412
      Cm = -0.2726     CD =  0.01711   =>   CDf =  0.00731    CDp =  0.00980

 Side 1  free  transition at x/c =  0.5510   62
 Side 2  free  transition at x/c =  0.3491   35

   5   rms: 0.1139E-02   max: 0.6559E-02   D at   35  2
       a =  5.000      CL =  1.7419
      Cm = -0.2728     CD =  0.01710   =>   CDf =  0.00722    CDp =  0.00988

 Side 1  free  transition at x/c =  0.5512   62
 Side 2  free  transition at x/c =  0.3490   35

   6   rms: 0.1531E-04   max: -.7438E-04   D at   88  1
       a =  5.000      CL =  1.7419
      Cm = -0.2728     CD =  0.01710   =>   CDf =  0.00722    CDp =  0.00988

 Point added to stored polar  1
 Point written to save file  000090M0.1.log                                  
 Dump file unspecified or not available
 Calculating wake trajectory ...
 Calculating source influence matrix ...

 Solving BL system ...

 Side 1  free  transition at x/c =  0.5512   62
 Side 2  free  transition at x/c =  0.3490   35

   1   rms: 0.1823E+00   max: -.1414E+01   T at   35  2   RLX: 0.353
       a =  6.000      CL =  1.7773
      Cm = -0.2721     CD =  0.01740   =>   CDf =  0.00724    CDp =  0.01017

 Side 1  free  transition at x/c =  0.5438   62
 Side 2  free  transition at x/c =  0.3759   37

   2   rms: 0.2035E+00   max: -.1399E+01   T at   37  2   RLX: 0.357
       a =  6.000      CL =  1.8050
      Cm = -0.2727     CD =  0.01759   =>   CDf =  0.00697    CDp =  0.01063

 Side 1  free  transition at x/c =  0.5404   63
 Side 2  free  transition at x/c =  0.4028   37

   3   rms: 0.1440E+00   max: 0.1526E+01   T at    2  1   RLX: 0.483
       a =  6.000      CL =  1.8296
      Cm = -0.2732     CD =  0.01792   =>   CDf =  0.00713    CDp =  0.01079

 Side 1  free  transition at x/c =  0.5377   62
 Side 2  free  transition at x/c =  0.4281   39

   4   rms: 0.1063E+00   max: -.1125E+01   C at   39  2   RLX: 0.444
       a =  6.000      CL =  1.8387
      Cm = -0.2731     CD =  0.01791   =>   CDf =  0.00708    CDp =  0.01083

 Side 1  free  transition at x/c =  0.5355   62
 Side 2  free  transition at x/c =  0.4498   40

   5   rms: 0.9187E-01   max: -.1337E+01   C at   40  2   RLX: 0.374
       a =  6.000      CL =  1.8430
      Cm = -0.2730     CD =  0.01797   =>   CDf =  0.00695    CDp =  0.01102

 Side 1  free  transition at x/c =  0.5346   62
 Side 2  free  transition at x/c =  0.4667   41

   6   rms: 0.1059E+00   max: -.1721E+01   C at   41  2   RLX: 0.291
       a =  6.000      CL =  1.8454
      Cm = -0.2730     CD =  0.01797   =>   CDf =  0.00689    CDp =  0.01107

 Side 1  free  transition at x/c =  0.5341   62
 Side 2  free  transition at x/c =  0.4804   42

   7   rms: 0.1149E+00   max: -.1799E+01   C at   42  2   RLX: 0.278
       a =  6.000      CL =  1.8473
      Cm = -0.2731     CD =  0.01796   =>   CDf =  0.00687    CDp =  0.01109

 Side 1  free  transition at x/c =  0.5337   62
 Side 2  free  transition at x/c =  0.4978   43

   8   rms: 0.1364E+00   max: -.2322E+01   C at   43  2   RLX: 0.215
       a =  6.000      CL =  1.8484
      Cm = -0.2732     CD =  0.01796   =>   CDf =  0.00683    CDp =  0.01113

 Side 1  free  transition at x/c =  0.5336   62
 Side 2  free  transition at x/c =  0.5153   43

   9   rms: 0.9212E-01   max: -.1694E+01   C at   43  2   RLX: 0.295
       a =  6.000      CL =  1.8487
      Cm = -0.2730     CD =  0.01795   =>   CDf =  0.00678    CDp =  0.01116

 Side 1  free  transition at x/c =  0.5334   62
 Side 2 forced transition at x/c =  1.0001   72

  10   rms: 0.3645E-01   max: -.2823E+00   D at   43  2
       a =  6.000      CL =  1.8431
      Cm = -0.2711     CD =  0.01751   =>   CDf =  0.00631    CDp =  0.01119

 Side 1  free  transition at x/c =  0.5331   62
 Side 2 forced transition at x/c =  1.0001   72

  11   rms: 0.6726E-02   max: 0.4276E-01   D at   40  2
       a =  6.000      CL =  1.8430
      Cm = -0.2711     CD =  0.01751   =>   CDf =  0.00634    CDp =  0.01117

 Side 1  free  transition at x/c =  0.5331   62
 Side 2 forced transition at x/c =  1.0001   72

  12   rms: 0.4891E-03   max: 0.2953E-02   D at   39  2
       a =  6.000      CL =  1.8430
      Cm = -0.2711     CD =  0.01751   =>   CDf =  0.00633    CDp =  0.01117

 Side 1  free  transition at x/c =  0.5331   62
 Side 2 forced transition at x/c =  1.0001   72

  13   rms: 0.2505E-05   max: 0.1530E-04   D at   38  2
       a =  6.000      CL =  1.8430
      Cm = -0.2711     CD =  0.01751   =>   CDf =  0.00633    CDp =  0.01117

 Point added to stored polar  1
 Point written to save file  000090M0.1.log                                  
 Dump file unspecified or not available
 Calculating wake trajectory ...
 Calculating source influence matrix ...

 Solving BL system ...

 Side 1  free  transition at x/c =  0.5331   62
 Side 2 forced transition at x/c =  1.0001   72

   1   rms: 0.2462E+00   max: -.8500E+00   n at   47  2   RLX: 0.588
       a =  7.000      CL =  1.8991
      Cm = -0.2694     CD =  0.01822   =>   CDf =  0.00608    CDp =  0.01214

 Side 1  free  transition at x/c =  0.5218   63
 Side 2 forced transition at x/c =  1.0001   71

   2   rms: 0.7000E-01   max: -.2934E+00   D at   63  1
       a =  7.000      CL =  1.9505
      Cm = -0.2706     CD =  0.01901   =>   CDf =  0.00649    CDp =  0.01252

 Side 1  free  transition at x/c =  0.5170   62
 Side 2 forced transition at x/c =  1.0001   71

   3   rms: 0.1176E-01   max: -.9247E-01   D at   62  1
       a =  7.000      CL =  1.9398
      Cm = -0.2686     CD =  0.01885   =>   CDf =  0.00634    CDp =  0.01251

 Side 1  free  transition at x/c =  0.5150   62
 Side 2 forced transition at x/c =  1.0001   71

   4   rms: 0.8962E-03   max: 0.4095E-02   C at   71  2
       a =  7.000      CL =  1.9404
      Cm = -0.2687     CD =  0.01884   =>   CDf =  0.00630    CDp =  0.01254

 Side 1  free  transition at x/c =  0.5151   62
 Side 2 forced transition at x/c =  1.0001   71

   5   rms: 0.1280E-04   max: 0.6233E-04   C at   71  2
       a =  7.000      CL =  1.9404
      Cm = -0.2687     CD =  0.01884   =>   CDf =  0.00630    CDp =  0.01254

 Point added to stored polar  1
 Point written to save file  000090M0.1.log                                  
 Dump file unspecified or not available
 Calculating wake trajectory ...
 Calculating source influence matrix ...

 Solving BL system ...

 Side 1  free  transition at x/c =  0.5151   62
 Side 2 forced transition at x/c =  1.0001   71

   1   rms: 0.1514E+00   max: -.2313E+00   n at   50  2
       a =  8.000      CL =  2.0308
      Cm = -0.2650     CD =  0.02020   =>   CDf =  0.00577    CDp =  0.01443

 Side 1  free  transition at x/c =  0.4828   62
 Side 2 forced transition at x/c =  1.0001   69

   2   rms: 0.6984E-01   max: -.6014E+00   D at   63  1   RLX: 0.831
       a =  8.000      CL =  2.0367
      Cm = -0.2658     CD =  0.02060   =>   CDf =  0.00628    CDp =  0.01432

 Side 1  free  transition at x/c =  0.4895   63
 Side 2 forced transition at x/c =  1.0001   69

   3   rms: 0.1828E-01   max: 0.9235E-01   D at   72  2
       a =  8.000      CL =  2.0242
      Cm = -0.2636     CD =  0.02012   =>   CDf =  0.00658    CDp =  0.01354

 Side 1  free  transition at x/c =  0.4902   62
 Side 2 forced transition at x/c =  1.0001   70

   4   rms: 0.3600E-02   max: -.5695E-01   T at    2  2
       a =  8.000      CL =  2.0230
      Cm = -0.2633     CD =  0.02014   =>   CDf =  0.00622    CDp =  0.01392

 Side 1  free  transition at x/c =  0.4902   62
 Side 2 forced transition at x/c =  1.0001   70

   5   rms: 0.2281E-03   max: 0.2781E-02   D at    4  2
       a =  8.000      CL =  2.0230
      Cm = -0.2633     CD =  0.02014   =>   CDf =  0.00622    CDp =  0.01392

 Side 1  free  transition at x/c =  0.4902   62
 Side 2 forced transition at x/c =  1.0001   70

   6   rms: 0.1740E-05   max: -.3247E-04   D at    2  2
       a =  8.000      CL =  2.0230
      Cm = -0.2633     CD =  0.02014   =>   CDf =  0.00622    CDp =  0.01392

 Point added to stored polar  1
 Point written to save file  000090M0.1.log                                  
 Dump file unspecified or not available
 Calculating wake trajectory ...
 Calculating source influence matrix ...

 Solving BL system ...

 Side 1  free  transition at x/c =  0.4902   62
 Side 2 forced transition at x/c =  1.0001   70

   1   rms: 0.1569E+00   max: -.7206E+00   D at   63  1   RLX: 0.694
       a =  9.000      CL =  2.0819
      Cm = -0.2599     CD =  0.02104   =>   CDf =  0.00592    CDp =  0.01511

 MRCHDU: Convergence failed at  63  side 1    Res =  0.1473E+01
 Side 1  free  transition at x/c =  0.4718   62
 Side 2 forced transition at x/c =  1.0001   69

   2   rms: 0.5886E-01   max: -.5117E+00   D at   63  1   RLX: 0.977
       a =  9.000      CL =  2.0742
      Cm = -0.2522     CD =  0.02145   =>   CDf =  0.00555    CDp =  0.01589

 Side 1  free  transition at x/c =  0.4629   62
 Side 2 forced transition at x/c =  1.0001   68

   3   rms: 0.3603E+00   max: -.6450E+01   D at    2  1   RLX: 0.078
       a =  9.000      CL =  2.0743
      Cm = -0.2521     CD =  0.02245   =>   CDf =  0.00637    CDp =  0.01608

 Side 1  free  transition at x/c =  0.4627   61
 Side 2 forced transition at x/c =  1.0001   69

   4   rms: 0.1150E-01   max: -.1029E+00   D at   61  1
       a =  9.000      CL =  2.0721
      Cm = -0.2520     CD =  0.02204   =>   CDf =  0.00604    CDp =  0.01600

 Side 1  free  transition at x/c =  0.4604   61
 Side 2 forced transition at x/c =  1.0001   69

   5   rms: 0.2505E-02   max: -.1260E-01   D at   91  1
       a =  9.000      CL =  2.0736
      Cm = -0.2522     CD =  0.02202   =>   CDf =  0.00569    CDp =  0.01634

 Side 1  free  transition at x/c =  0.4604   62
 Side 2 forced transition at x/c =  1.0001   68

   6   rms: 0.3461E-03   max: -.5250E-02   T at    2  1
       a =  9.000      CL =  2.0736
      Cm = -0.2523     CD =  0.02202   =>   CDf =  0.00601    CDp =  0.01601

 Side 1  free  transition at x/c =  0.4604   62
 Side 2 forced transition at x/c =  1.0001   68

   7   rms: 0.2873E-03   max: -.3741E-02   D at    4  1
       a =  9.000      CL =  2.0736
      Cm = -0.2522     CD =  0.02202   =>   CDf =  0.00601    CDp =  0.01601

 Side 1  free  transition at x/c =  0.4604   62
 Side 2 forced transition at x/c =  1.0001   68

   8   rms: 0.9809E-05   max: 0.1239E-03   D at    4  1
       a =  9.000      CL =  2.0736
      Cm = -0.2522     CD =  0.02202   =>   CDf =  0.00601    CDp =  0.01601

 Point added to stored polar  1
 Point written to save file  000090M0.1.log                                  
 Dump file unspecified or not available
 Calculating wake trajectory ...
 Calculating source influence matrix ...

 Solving BL system ...

 Side 1  free  transition at x/c =  0.4604   62
 Side 2 forced transition at x/c =  1.0001   68

   1   rms: 0.1324E+00   max: 0.5751E+00   T at   62  1
       a = 10.000      CL =  2.1082
      Cm = -0.2388     CD =  0.02444   =>   CDf =  0.00603    CDp =  0.01841

 Side 1  free  transition at x/c =  0.4296   60
 Side 2 forced transition at x/c =  1.0001   68

   2   rms: 0.2687E-01   max: 0.4032E+00   D at   61  1
       a = 10.000      CL =  2.1117
      Cm = -0.2403     CD =  0.02512   =>   CDf =  0.00590    CDp =  0.01922

 Side 1  free  transition at x/c =  0.4303   60
 Side 2 forced transition at x/c =  1.0001   68

   3   rms: 0.2857E-02   max: 0.3162E-01   C at   60  1
       a = 10.000      CL =  2.1137
      Cm = -0.2406     CD =  0.02497   =>   CDf =  0.00579    CDp =  0.01918

 Side 1  free  transition at x/c =  0.4290   60
 Side 2 forced transition at x/c =  1.0001   68

   4   rms: 0.7290E-04   max: -.8454E-03   D at   60  1
       a = 10.000      CL =  2.1137
      Cm = -0.2406     CD =  0.02497   =>   CDf =  0.00581    CDp =  0.01916

 Point added to stored polar  1
 Point written to save file  000090M0.1.log                                  
 Dump file unspecified or not available
 Calculating wake trajectory ...
 Calculating source influence matrix ...

 Solving BL system ...

 Side 1  free  transition at x/c =  0.4290   60
 Side 2 forced transition at x/c =  1.0001   68

   1   rms: 0.1300E+00   max: 0.4142E+00   T at   60  1
       a = 11.000      CL =  2.1500
      Cm = -0.2293     CD =  0.02864   =>   CDf =  0.00547    CDp =  0.02317

 Side 1  free  transition at x/c =  0.3881   59
 Side 2 forced transition at x/c =  1.0001   67

   2   rms: 0.3122E-01   max: 0.4160E+00   D at   60  1
       a = 11.000      CL =  2.1369
      Cm = -0.2282     CD =  0.02985   =>   CDf =  0.00583    CDp =  0.02403

 Side 1  free  transition at x/c =  0.3973   59
 Side 2 forced transition at x/c =  1.0001   67

   3   rms: 0.8559E-02   max: 0.8508E-01   C at   59  1
       a = 11.000      CL =  2.1436
      Cm = -0.2290     CD =  0.02940   =>   CDf =  0.00551    CDp =  0.02389

 Side 1  free  transition at x/c =  0.3941   59
 Side 2 forced transition at x/c =  1.0001   67

   4   rms: 0.4347E-03   max: -.3813E-02   C at   59  1
       a = 11.000      CL =  2.1437
      Cm = -0.2291     CD =  0.02941   =>   CDf =  0.00557    CDp =  0.02384

 Side 1  free  transition at x/c =  0.3942   59
 Side 2 forced transition at x/c =  1.0001   67

   5   rms: 0.1833E-04   max: -.9595E-04   D at   78  2
       a = 11.000      CL =  2.1438
      Cm = -0.2291     CD =  0.02941   =>   CDf =  0.00556    CDp =  0.02385

 Point added to stored polar  1
 Point written to save file  000090M0.1.log                                  
 Dump file unspecified or not available
 Calculating wake trajectory ...
 Calculating source influence matrix ...

 Solving BL system ...

 Side 1  free  transition at x/c =  0.3942   59
 Side 2 forced transition at x/c =  1.0001   67

   1   rms: 0.1344E+00   max: -.4390E+00   D at   60  1   RLX: 0.883
       a = 12.000      CL =  2.1620
      Cm = -0.2189     CD =  0.03452   =>   CDf =  0.00521    CDp =  0.02931

 Side 1  free  transition at x/c =  0.3448   57
 Side 2 forced transition at x/c =  1.0001   66

   2   rms: 0.3598E-01   max: 0.2678E+00   D at   86  1
       a = 12.000      CL =  2.1485
      Cm = -0.2166     CD =  0.03688   =>   CDf =  0.00559    CDp =  0.03129

 Side 1  free  transition at x/c =  0.3475   57
 Side 2 forced transition at x/c =  1.0001   66

   3   rms: 0.4764E-02   max: -.6868E-01   D at   59  1
       a = 12.000      CL =  2.1489
      Cm = -0.2166     CD =  0.03678   =>   CDf =  0.00537    CDp =  0.03141

 Side 1  free  transition at x/c =  0.3455   57
 Side 2 forced transition at x/c =  1.0001   66

   4   rms: 0.1884E-03   max: -.2738E-02   D at   59  1
       a = 12.000      CL =  2.1488
      Cm = -0.2166     CD =  0.03678   =>   CDf =  0.00540    CDp =  0.03139

 Side 1  free  transition at x/c =  0.3455   57
 Side 2 forced transition at x/c =  1.0001   66

   5   rms: 0.4362E-05   max: -.2234E-04   D at   77  2
       a = 12.000      CL =  2.1488
      Cm = -0.2166     CD =  0.03678   =>   CDf =  0.00540    CDp =  0.03139

 Point added to stored polar  1
 Point written to save file  000090M0.1.log                                  
 Dump file unspecified or not available
 Calculating wake trajectory ...
 Calculating source influence matrix ...

 Solving BL system ...

 Side 1  free  transition at x/c =  0.3455   57
 Side 2 forced transition at x/c =  1.0001   66

   1   rms: 0.1510E+00   max: 0.8961E+00   C at   57  1   RLX: 0.710
       a = 13.000      CL =  2.1430
      Cm = -0.2083     CD =  0.04390   =>   CDf =  0.00503    CDp =  0.03887

 Side 1  free  transition at x/c =  0.2798   54
 Side 2 forced transition at x/c =  1.0001   65

   2   rms: 0.6606E-01   max: 0.4646E+00   D at   83  1
       a = 13.000      CL =  2.1116
      Cm = -0.2039     CD =  0.05056   =>   CDf =  0.00566    CDp =  0.04491

 Side 1  free  transition at x/c =  0.2569   53
 Side 2 forced transition at x/c =  1.0001   65

   3   rms: 0.1787E-01   max: -.2266E+00   C at   53  1
       a = 13.000      CL =  2.1040
      Cm = -0.2036     CD =  0.05111   =>   CDf =  0.00566    CDp =  0.04545

 Side 1  free  transition at x/c =  0.2639   53
 Side 2 forced transition at x/c =  1.0001   65

   4   rms: 0.1858E-02   max: -.3188E-01   C at   53  1
       a = 13.000      CL =  2.1032
      Cm = -0.2034     CD =  0.05107   =>   CDf =  0.00553    CDp =  0.04554

 Side 1  free  transition at x/c =  0.2650   53
 Side 2 forced transition at x/c =  1.0001   65

   5   rms: 0.3784E-04   max: -.7365E-03   C at   53  1
       a = 13.000      CL =  2.1032
      Cm = -0.2034     CD =  0.05107   =>   CDf =  0.00552    CDp =  0.04555

 Point added to stored polar  1
 Point written to save file  000090M0.1.log                                  
 Dump file unspecified or not available
 Calculating wake trajectory ...
 Calculating source influence matrix ...

 Solving BL system ...

 Side 1  free  transition at x/c =  0.2651   53
 Side 2 forced transition at x/c =  1.0001   65

   1   rms: 0.2302E+00   max: 0.2898E+01   C at   53  1   RLX: 0.518
       a = 14.000      CL =  2.0647
      Cm = -0.1977     CD =  0.06221   =>   CDf =  0.00553    CDp =  0.05668

 Side 1  free  transition at x/c =  0.1941   48
 Side 2 forced transition at x/c =  1.0001   65

   2   rms: 0.1166E+00   max: 0.1080E+01   C at   48  1
       a = 14.000      CL =  2.0117
      Cm = -0.1933     CD =  0.07569   =>   CDf =  0.00600    CDp =  0.06969

 Side 1  free  transition at x/c =  0.1460   45
 Side 2 forced transition at x/c =  1.0001   65

   3   rms: 0.4279E-01   max: -.6470E+00   C at   45  1   RLX: 0.773
       a = 14.000      CL =  1.9994
      Cm = -0.1943     CD =  0.07606   =>   CDf =  0.00620    CDp =  0.06986

 Side 1  free  transition at x/c =  0.1599   46
 Side 2 forced transition at x/c =  1.0001   65

   4   rms: 0.7425E-02   max: -.1220E+00   C at   46  1
       a = 14.000      CL =  1.9953
      Cm = -0.1928     CD =  0.07619   =>   CDf =  0.00595    CDp =  0.07023

 Side 1  free  transition at x/c =  0.1628   46
 Side 2 forced transition at x/c =  1.0001   65

   5   rms: 0.6746E-03   max: -.1298E-01   C at   46  1
       a = 14.000      CL =  1.9952
      Cm = -0.1928     CD =  0.07611   =>   CDf =  0.00591    CDp =  0.07020

 Side 1  free  transition at x/c =  0.1631   46
 Side 2 forced transition at x/c =  1.0001   65

   6   rms: 0.2766E-04   max: 0.4782E-03   C at   46  1
       a = 14.000      CL =  1.9952
      Cm = -0.1928     CD =  0.07611   =>   CDf =  0.00591    CDp =  0.07020

 Point added to stored polar  1
 Point written to save file  000090M0.1.log                                  
 Dump file unspecified or not available
 Calculating wake trajectory ...
 Calculating source influence matrix ...

 Solving BL system ...

 Side 1  free  transition at x/c =  0.1631   46
 Side 2 forced transition at x/c =  1.0001   65

   1   rms: 0.2704E+00   max: 0.4440E+01   C at   46  1   RLX: 0.338
       a = 15.000      CL =  1.9636
      Cm = -0.1909     CD =  0.08599   =>   CDf =  0.00592    CDp =  0.08007

 Side 1  free  transition at x/c =  0.1321   44
 Side 2 forced transition at x/c =  1.0001   65

   2   rms: 0.1421E+00   max: 0.1818E+01   C at   44  1   RLX: 0.825
       a = 15.000      CL =  1.9219
      Cm = -0.1893     CD =  0.10076   =>   CDf =  0.00609    CDp =  0.09467

 Side 1  free  transition at x/c =  0.1045   42
 Side 2 forced transition at x/c =  1.0001   65

   3   rms: 0.3208E-01   max: 0.2680E+00   D at   70  1
       a = 15.000      CL =  1.9112
      Cm = -0.1887     CD =  0.10217   =>   CDf =  0.00613    CDp =  0.09604

 Side 1  free  transition at x/c =  0.1009   42
 Side 2 forced transition at x/c =  1.0001   65

   4   rms: 0.5032E-02   max: 0.4444E-01   D at   69  1
       a = 15.000      CL =  1.9085
      Cm = -0.1884     CD =  0.10158   =>   CDf =  0.00610    CDp =  0.09548

 Side 1  free  transition at x/c =  0.1017   42
 Side 2 forced transition at x/c =  1.0001   65

   5   rms: 0.2729E-03   max: 0.2331E-02   D at   82  2
       a = 15.000      CL =  1.9084
      Cm = -0.1884     CD =  0.10146   =>   CDf =  0.00607    CDp =  0.09539

 Side 1  free  transition at x/c =  0.1018   42
 Side 2 forced transition at x/c =  1.0001   65

   6   rms: 0.9609E-05   max: 0.5721E-04   C at   42  1
       a = 15.000      CL =  1.9084
      Cm = -0.1884     CD =  0.10146   =>   CDf =  0.00607    CDp =  0.09539

 Point added to stored polar  1
 Point written to save file  000090M0.1.log                                  
 Dump file unspecifGot result {'DD': 0.01495, 'Dmin': 0.01506, 'LL': -1.4115}
Completed successfully in 1.74 seconds. [{'DD': 0.01495, 'Dmin': 0.01506, 'LL': -1.4115}]
ied or not available

.OPERva   c>  
 XFOIL   c>  
