Job launching after 0.31 seconds in submission.
Running python job.
Changed into dir /home/simonx/Documents/Udacity/Projects/capstone/PESM_NSGA2_CST_XFoil
Importing evaluationFunctionXFoil.py
Running evaluationFunctionXFoil.main()
0
1
2
0.04
resp: 
 ===================================================
  XFOIL Version 6.97
  Copyright (C) 2000   Mark Drela, Harold Youngren

  This software comes with ABSOLUTELY NO WARRANTY,
    subject to the GNU General Public License.

  Caveat computor
 ===================================================

 File  xfoil.def  not found

   QUIT    Exit program

  .OPER    Direct operating point(s)
  .MDES    Complex mapping design routine
  .QDES    Surface speed design routine
  .GDES    Geometry design routine

   SAVE f  Write airfoil to labeled coordinate file
   PSAV f  Write airfoil to plain coordinate file
   ISAV f  Write airfoil to ISES coordinate file
   MSAV f  Write airfoil to MSES coordinate file
   REVE    Reverse written-airfoil node ordering
   DELI i  Change written-airfoil file delimiters

   LOAD f  Read buffer airfoil from coordinate file
   NACA i  Set NACA 4,5-digit airfoil and buffer airfoil
   INTE    Set buffer airfoil by interpolating two airfoils
   NORM    Buffer airfoil normalization toggle
   HALF    Halve the number of points in buffer airfoil
   XYCM rr Change CM reference location, currently  0.25000 0.00000

   BEND    Display structural properties of current airfoil

   PCOP    Set current-airfoil panel nodes directly from buffer airfoil points
   PANE    Set current-airfoil panel nodes ( 160 ) based on curvature
  .PPAR    Show/change paneling

  .PLOP    Plotting options

   WDEF f  Write  current-settings file
   RDEF f  Reread current-settings file
   NAME s  Specify new airfoil name
   NINC    Increment name version number

   Z       Zoom    | (available in all menus)
   U       Unzoom  | 

 XFOIL   c>   ...............................................

  G raphics-enable flag:        T
  S ize of plot object          10.00"
  A spect ratio of plot object   0.5500
  P age dimensions              11.00 x  8.50"
  M argins from page edges       0.00",  0.00"
  F ont size (relative)          0.0150
  W indow/screen size fraction   0.8000
  B lowup input method:        Cursor    
  O rientation of plot:        Landscape 
  C olor PostScript output?     F

      Option, Value   (or <Return>)    c>   ...............................................

  G raphics-enable flag:        F
  S ize of plot object          10.00"
  A spect ratio of plot object   0.5500
  P age dimensions              11.00 x  8.50"
  M argins from page edges       0.00",  0.00"
  F ont size (relative)          0.0150
  W indow/screen size fraction   0.8000
  B lowup input method:        Cursor    
  O rientation of plot:        Landscape 
  C olor PostScript output?     F

      Option, Value   (or <Return>)    c>  
 XFOIL   c>  
 Labeled airfoil file.  Name:  000271                                          

 Number of input coordinate points: 200
 Clockwise ordering
 Max thickness =     0.091998  at x =   0.158
 Max camber    =     0.115203  at x =   0.422

  LE  x,y  =  -0.00002   0.00074  |   Chord =   0.99989
  TE  x,y  =   0.99988   0.00003  |

 Current airfoil nodes set from buffer airfoil nodes ( 200 )

 XFOIL   c>  
 You are working with the buffer airfoil

.GDES   c>  
  i       x        y      angle
   2   0.9990   0.0003   -0.015
   3   0.9978   0.0006   -0.038
   4   0.9961   0.0011   -0.089
   5   0.9938   0.0017   -0.087
   6   0.9911   0.0024   -0.082
   7   0.9880   0.0033   -0.113
   8   0.9843   0.0043   -0.129
   9   0.9801   0.0055   -0.118
  10   0.9755   0.0068   -0.153
  11   0.9704   0.0083   -0.150
  12   0.9649   0.0099   -0.149
  13   0.9589   0.0116   -0.176
  14   0.9524   0.0136   -0.155
  15   0.9455   0.0156   -0.177
  16   0.9382   0.0179   -0.157
  17   0.9304   0.0202   -0.174
  18   0.9222   0.0228   -0.153
  19   0.9135   0.0255   -0.149
  20   0.9045   0.0283   -0.154
  21   0.8951   0.0313   -0.126
  22   0.8853   0.0344   -0.119
  23   0.8751   0.0377   -0.100
  24   0.8645   0.0411   -0.084
  25   0.8536   0.0447   -0.072
  26   0.8423   0.0484   -0.040
  27   0.8307   0.0522   -0.018
  28   0.8187   0.0561    0.009
  29   0.8065   0.0601    0.035
  30   0.7939   0.0643    0.068
  31   0.7810   0.0684    0.097
  32   0.7679   0.0727    0.137
  33   0.7545   0.0770    0.168
  34   0.7409   0.0814    0.205
  35   0.7270   0.0857    0.248
  36   0.7129   0.0901    0.290
  37   0.6986   0.0944    0.328
  38   0.6841   0.0988    0.373
  39   0.6694   0.1030    0.420
  40   0.6545   0.1072    0.466
  41   0.6395   0.1114    0.508
  42   0.6243   0.1154    0.563
  43   0.6091   0.1192    0.605
  44   0.5937   0.1230    0.654
  45   0.5782   0.1266    0.704
  46   0.5627   0.1299    0.751
  47   0.5471   0.1331    0.797
  48   0.5314   0.1361    0.848
  49   0.5157   0.1388    0.890
  50   0.5000   0.1413    0.935
  51   0.4843   0.1436    0.979
  52   0.4686   0.1455    1.015
  53   0.4529   0.1472    1.055
  54   0.4373   0.1486    1.093
  55   0.4218   0.1496    1.121
  56   0.4063   0.1504    1.151
  57   0.3909   0.1508    1.181
  58   0.3757   0.1510    1.195
  59   0.3605   0.1508    1.220
  60   0.3455   0.1503    1.228
  61   0.3306   0.1494    1.240
  62   0.3159   0.1483    1.249
  63   0.3014   0.1469    1.247
  64   0.2871   0.1451    1.252
  65   0.2730   0.1431    1.237
  66   0.2591   0.1408    1.239
  67   0.2455   0.1383    1.228
  68   0.2321   0.1355    1.216
  69   0.2190   0.1324    1.198
  70   0.2061   0.1291    1.184
  71   0.1935   0.1257    1.178
  72   0.1813   0.1220    1.155
  73   0.1693   0.1182    1.144
  74   0.1577   0.1142    1.130
  75   0.1464   0.1101    1.130
  76   0.1355   0.1058    1.118
  77   0.1249   0.1015    1.122
  78   0.1147   0.0971    1.123
  79   0.1049   0.0926    1.153
  80   0.0955   0.0881    1.160
  81   0.0865   0.0835    1.201
  82   0.0778   0.0789    1.248
  83   0.0696   0.0743    1.318
  84   0.0618   0.0697    1.392
  85   0.0545   0.0651    1.492
  86   0.0476   0.0605    1.636
  87   0.0411   0.0559    1.784
  88   0.0351   0.0514    1.971
  89   0.0296   0.0469    2.222
  90   0.0245   0.0425    2.487
  91   0.0199   0.0381    2.826
  92   0.0157   0.0337    3.240
  93   0.0120   0.0294    3.667
  94   0.0089   0.0251    4.205
  95   0.0062   0.0209    4.756
  96   0.0039   0.0167    5.329
  97   0.0022   0.0125    5.908
  98   0.0010   0.0083    6.363
  99   0.0002   0.0042    6.684
 100   0.0000   0.0000   11.171
 101   0.0002  -0.0018   14.853
 102   0.0010  -0.0036   13.231
 103   0.0022  -0.0053   11.303
 104   0.0039  -0.0069    9.431
 105   0.0062  -0.0084    7.860
 106   0.0089  -0.0096    6.652
 107   0.0120  -0.0107    5.627
 108   0.0157  -0.0116    4.850
 109   0.0199  -0.0122    4.191
 110   0.0245  -0.0126    3.627
 111   0.0296  -0.0126    3.197
 112   0.0351  -0.0124    2.772
 113   0.0411  -0.0118    2.446
 114   0.0476  -0.0109    2.125
 115   0.0545  -0.0097    1.850
 116   0.0618  -0.0082    1.612
 117   0.0696  -0.0063    1.365
 118   0.0778  -0.0041    1.169
 119   0.0865  -0.0017    0.966
 120   0.0955   0.0011    0.798
 121   0.1049   0.0041    0.619
 122   0.1147   0.0073    0.471
 123   0.1249   0.0108    0.314
 124   0.1355   0.0144    0.176
 125   0.1464   0.0183    0.051
 126   0.1577   0.0222   -0.087
 127   0.1693   0.0263   -0.196
 128   0.1813   0.0304   -0.307
 129   0.1935   0.0346   -0.426
 130   0.2061   0.0387   -0.516
 131   0.2190   0.0428   -0.616
 132   0.2321   0.0469   -0.699
 133   0.2455   0.0509   -0.789
 134   0.2591   0.0547   -0.860
 135   0.2730   0.0584   -0.926
 136   0.2871   0.0618   -0.989
 137   0.3014   0.0651   -1.047
 138   0.3159   0.0682   -1.087
 139   0.3306   0.0710   -1.128
 140   0.3455   0.0735   -1.156
 141   0.3605   0.0757   -1.179
 142   0.3757   0.0777   -1.186
 143   0.3909   0.0793   -1.194
 144   0.4063   0.0807   -1.186
 145   0.4218   0.0817   -1.179
 146   0.4373   0.0824   -1.158
 147   0.4529   0.0828   -1.127
 148   0.4686   0.0828   -1.100
 149   0.4843   0.0826   -1.060
 150   0.5000   0.0821   -1.012
 151   0.5157   0.0813   -0.967
 152   0.5314   0.0802   -0.917
 153   0.5471   0.0789   -0.858
 154   0.5627   0.0774   -0.806
 155   0.5782   0.0756   -0.747
 156   0.5937   0.0737   -0.684
 157   0.6091   0.0716   -0.632
 158   0.6243   0.0693   -0.562
 159   0.6395   0.0669   -0.510
 160   0.6545   0.0643   -0.451
 161   0.6694   0.0617   -0.392
 162   0.6841   0.0590   -0.333
 163   0.6986   0.0563   -0.286
 164   0.7129   0.0535   -0.235
 165   0.7270   0.0507   -0.176
 166   0.7409   0.0479   -0.138
 167   0.7545   0.0451   -0.097
 168   0.7679   0.0423   -0.043
 169   0.7810   0.0396   -0.016
 170   0.7939   0.0369    0.025
 171   0.8065   0.0343    0.050
 172   0.8187   0.0318    0.093
 173   0.8307   0.0293    0.110
 174   0.8423   0.0270    0.133
 175   0.8536   0.0247    0.158
 176   0.8645   0.0225    0.173
 177   0.8751   0.0205    0.194
 178   0.8853   0.0185    0.194
 179   0.8951   0.0167    0.216
 180   0.9045   0.0150    0.215
 181   0.9135   0.0134    0.218
 182   0.9222   0.0118    0.229
 183   0.9304   0.0104    0.223
 184   0.9382   0.0091    0.217
 185   0.9455   0.0079    0.220
 186   0.9524   0.0068    0.203
 187   0.9589   0.0058    0.200
 188   0.9649   0.0049    0.202
 189   0.9704   0.0041    0.176
 190   0.9755   0.0033    0.166
 191   0.9801   0.0027    0.154
 192   0.9843   0.0021    0.153
 193   0.9880   0.0016    0.108
 194   0.9911   0.0012    0.109
 195   0.9938   0.0008    0.104
 196   0.9961   0.0005    0.056
 197   0.9978   0.0003    0.082
 198   0.9990   0.0001    0.038
 199   0.9998   0.0000   -0.066

 Maximum panel corner angle = 14.853   at  i,x,y  = 101   0.0002  -0.0018

 Enter corner angle criterion for refinement (deg):   7.427
 Enter type of spline parameter (1=uniform, 2=arclength):   1
 Enter refinement x limits:  -0.10000   1.10000
 Number of points added:           12
 Max thickness =     0.091973  at x =   0.158
 Max camber    =     0.115658  at x =   0.422

 Maximum panel corner angle =  7.655   at  i,x,y  = 103   0.0001  -0.0013

.GDES   c>  
 Buffer airfoil is not identical to current airfoil

 XFOIL   c>  
 Blunt trailing edge.  Gap =  0.00026

 Paneling parameters used...
   Number of panel nodes       160
   Panel bunching parameter    1.000
   TE/LE panel density ratio   0.150
   Refined-area/LE panel density ratio    0.200
   Top    side refined area x/c limits  1.000 1.000
   Bottom side refined area x/c limits  1.000 1.000

 XFOIL   c>  
Enter output filename   s>  
 XFOIL   c>  
.OPERi   c>   Current iteration limit:          20

Enter new iteration limit   i>  
Enter new iteration limit   i>  
Enter new iteration limit   i>  
.OPERi   c>  
 M  =    0.0000
 Re =  0.3000E+06

.OPERv   c>  
 Sonic Cp =   -420.65      Sonic Q/Qinf =    22.825


.OPERv   c>  
 Polar  1 newly created for accumulation
 Airfoil archived with polar: 000271                                          

Enter  polar save filename  OR  <return> for no file   s>  
 New polar save file available

Enter  polar dump filename  OR  <return> for no file   s>  
 Polar dump file will NOT be written

 Polar accumulation enabled

.OPERva   c>   Calculating unit vorticity distributions ...
 Calculating wake trajectory ...
 Calculating source influence matrix ...

 Solving BL system ...

 Initializing BL ...
    side            1  ...
 MRCHUE: Inverse mode at  50     Hk =   4.094
 MRCHUE: Inverse mode at  51     Hk =   4.809
 MRCHUE: Inverse mode at  52     Hk =   5.508
 MRCHUE: Inverse mode at  53     Hk =   6.196
 MRCHUE: Inverse mode at  54     Hk =   6.877
 MRCHUE: Inverse mode at  55     Hk =   7.552
 MRCHUE: Inverse mode at  56     Hk =   8.223
 MRCHUE: Inverse mode at  57     Hk =   8.892
 MRCHUE: Inverse mode at  58     Hk =   9.180
 MRCHUE: Inverse mode at  59     Hk =   6.041
 MRCHUE: Inverse mode at  60     Hk =   4.404
 MRCHUE: Inverse mode at  61     Hk =   3.263
 MRCHUE: Convergence failed at  83  side 1    Res =  0.2122E+01
    side            2  ...
 MRCHUE: Inverse mode at  22     Hk =   4.512
 MRCHUE: Inverse mode at  23     Hk =   5.346
 MRCHUE: Inverse mode at  24     Hk =   6.220
 MRCHUE: Inverse mode at  25     Hk =   7.137
 MRCHUE: Inverse mode at  26     Hk =   8.091
 MRCHUE: Inverse mode at  27     Hk =   9.070
 MRCHUE: Inverse mode at  28     Hk =   9.769
 MRCHUE: Inverse mode at  29     Hk =   5.120
 MRCHUE: Inverse mode at  30     Hk =   3.308
 MRCHUE: Inverse mode at  31     Hk =   2.500
 MRCHUE: Inverse mode at  32     Hk =   2.500
 MRCHUE: Inverse mode at  33     Hk =   2.500
 MRCHUE: Convergence failed at  79  side 2    Res =  0.9495E+00

 MRCHDU: Convergence failed at  83  side 1    Res =  0.2192E+01
 Side 1  free  transition at x/c =  0.5843   58
 Side 2  free  transition at x/c =  0.1591   28

   1   rms: 0.3523E+01   max: -.1812E+02   T at   28  2   RLX: 0.028
       a =  2.000      CL =  1.3228
      Cm = -0.2260     CD =  0.00789   =>   CDf =  0.00734    CDp =  0.00055

 MRCHDU: Convergence failed at  29  side 2    Res =  0.1631E+01
 MRCHDU: Convergence failed at  30  side 2    Res =  0.7639E+02
 MRCHDU: Convergence failed at  31  side 2    Res =  0.4083E+01
 MRCHDU: Convergence failed at  32  side 2    Res =  0.3098E+02
 MRCHDU: Convergence failed at  33  side 2    Res =  0.1019E+03
 MRCHDU: Convergence failed at  34  side 2    Res =  0.3819E+02
 MRCHDU: Convergence failed at  35  side 2    Res =  0.3082E+02
 MRCHDU: Convergence failed at  36  side 2    Res =  0.5592E+02
 MRCHDU: Convergence failed at  37  side 2    Res =  0.3482E+02
 MRCHDU: Convergence failed at  38  side 2    Res =  0.2766E+02
 MRCHDU: Convergence failed at  39  side 2    Res =  0.2523E+02
 MRCHDU: Convergence failed at  40  side 2    Res =  0.2674E+02
 MRCHDU: Convergence failed at  41  side 2    Res =  0.2683E+02
 MRCHDU: Convergence failed at  42  side 2    Res =  0.2966E+02
 MRCHDU: Convergence failed at  43  side 2    Res =  0.4881E+02
 MRCHDU: Convergence failed at  44  side 2    Res =  0.1120E+03
 MRCHDU: Convergence failed at  45  side 2    Res =  0.1861E+03
 MRCHDU: Convergence failed at  46  side 2    Res =  0.1496E+03
 MRCHDU: Convergence failed at  47  side 2    Res =  0.4075E+02
 MRCHDU: Convergence failed at  48  side 2    Res =  0.2542E+02
 MRCHDU: Convergence failed at  49  side 2    Res =  0.2859E+02
 MRCHDU: Convergence failed at  50  side 2    Res =  0.3237E+02
 MRCHDU: Convergence failed at  51  side 2    Res =  0.2952E+02
 MRCHDU: Convergence failed at  52  side 2    Res =  0.2417E+02
 MRCHDU: Convergence failed at  53  side 2    Res =  0.2025E+02
 MRCHDU: Convergence failed at  54  side 2    Res =  0.1630E+04
 MRCHDU: Convergence failed at  55  side 2    Res =  0.1524E+03
 MRCHDU: Convergence failed at  56  side 2    Res =  0.6397E+02
 MRCHDU: Convergence failed at  57  side 2    Res =  0.1172E+03
 MRCHDU: Convergence failed at  58  side 2    Res =  0.5487E+03
 MRCHDU: Convergence failed at  59  side 2    Res =  0.2161E+03
 MRCHDU: Convergence failed at  60  side 2    Res =  0.9043E+02
 MRCHDU: Convergence failed at  61  side 2    Res =  0.1027E+03
 MRCHDU: Convergence failed at  62  side 2    Res =  0.7876E+02
 MRCHDU: Convergence failed at  63  side 2    Res =  0.2804E+03
 MRCHDU: Convergence failed at  64  side 2    Res =  0.2607E+02
 MRCHDU: Convergence failed at  65  side 2    Res =  0.9866E+01
 MRCHDU: Convergence failed at  66  side 2    Res =  0.5201E+01
 MRCHDU: Convergence failed at  67  side 2    Res =  0.3180E+01
 MRCHDU: Convergence failed at  68  side 2    Res =  0.1991E+01
 MRCHDU: Convergence failed at  69  side 2    Res =  0.2455E+01
 MRCHDU: Convergence failed at  70  side 2    Res =  0.2206E+01
 MRCHDU: Convergence failed at  71  side 2    Res =  0.2219E+01
 MRCHDU: Convergence failed at  72  side 2    Res =  0.2294E+01
 MRCHDU: Convergence failed at  73  side 2    Res =  0.5941E+01
 MRCHDU: Convergence failed at  74  side 2    Res =  0.2451E+02
 Side 1  free  transition at x/c =  0.5846   58
 Side 2  free  transition at x/c =  0.1746   29

   2   rms: 0.1439E+01   max: 0.1254E+02   T at   29  2   RLX: 0.044
       a =  2.000      CL =  1.0592
      Cm = -0.1610     CD =  0.00747   =>   CDf =  0.00547    CDp =  0.00200

 MRCHDU: Convergence failed at  33  side 2    Res =  0.1680E+00
 MRCHDU: Convergence failed at  34  side 2    Res =  0.1763E+00
 MRCHDU: Convergence failed at  35  side 2    Res =  0.1791E+00
 MRCHDU: Convergence failed at  36  side 2    Res =  0.1795E+00
 MRCHDU: Convergence failed at  37  side 2    Res =  0.1785E+00
 MRCHDU: Convergence failed at  38  side 2    Res =  0.1774E+00
 MRCHDU: Convergence failed at  39  side 2    Res =  0.1740E+00
 MRCHDU: Convergence failed at  40  side 2    Res =  0.1762E+00
 MRCHDU: Convergence failed at  41  side 2    Res =  0.1764E+00
 MRCHDU: Convergence failed at  42  side 2    Res =  0.1769E+00
 MRCHDU: Convergence failed at  43  side 2    Res =  0.1779E+00
 MRCHDU: Convergence failed at  44  side 2    Res =  0.1794E+00
 MRCHDU: Convergence failed at  45  side 2    Res =  0.1812E+00
 MRCHDU: Convergence failed at  46  side 2    Res =  0.1835E+00
 MRCHDU: Convergence failed at  47  side 2    Res =  0.1861E+00
 MRCHDU: Convergence failed at  48  side 2    Res =  0.1890E+00
 MRCHDU: Convergence failed at  49  side 2    Res =  0.1922E+00
 MRCHDU: Convergence failed at  50  side 2    Res =  0.1956E+00
 MRCHDU: Convergence failed at  51  side 2    Res =  0.1995E+00
 MRCHDU: Convergence failed at  52  side 2    Res =  0.2037E+00
 MRCHDU: Convergence failed at  53  side 2    Res =  0.2081E+00
 MRCHDU: Convergence failed at  54  side 2    Res =  0.2128E+00
 MRCHDU: Convergence failed at  55  side 2    Res =  0.2175E+00
 MRCHDU: Convergence failed at  56  side 2    Res =  0.2224E+00
 MRCHDU: Convergence failed at  57  side 2    Res =  0.2274E+00
 MRCHDU: Convergence failed at  58  side 2    Res =  0.2323E+00
 MRCHDU: Convergence failed at  59  side 2    Res =  0.2374E+00
 MRCHDU: Convergence failed at  60  side 2    Res =  0.2425E+00
 MRCHDU: Convergence failed at  61  side 2    Res =  0.2477E+00
 MRCHDU: Convergence failed at  62  side 2    Res =  0.2528E+00
 MRCHDU: Convergence failed at  63  side 2    Res =  0.2579E+00
 MRCHDU: Convergence failed at  64  side 2    Res =  0.2629E+00
 MRCHDU: Convergence failed at  65  side 2    Res =  0.2679E+00
 MRCHDU: Convergence failed at  66  side 2    Res =  0.2728E+00
 MRCHDU: Convergence failed at  67  side 2    Res =  0.2778E+00
 MRCHDU: Convergence failed at  68  side 2    Res =  0.2828E+00
 MRCHDU: Convergence failed at  69  side 2    Res =  0.2876E+00
 MRCHDU: Convergence failed at  70  side 2    Res =  0.2922E+00
 MRCHDU: Convergence failed at  71  side 2    Res =  0.2966E+00
 MRCHDU: Convergence failed at  72  side 2    Res =  0.3008E+00
 MRCHDU: Convergence failed at  73  side 2    Res =  0.3049E+00
 MRCHDU: Convergence failed at  74  side 2    Res =  0.3089E+00
 MRCHDU: Convergence failed at  75  side 2    Res =  0.3513E+00
 MRCHDU: Convergence failed at  76  side 2    Res =  0.3110E+00
 MRCHDU: Convergence failed at  77  side 2    Res =  0.3129E+00
 MRCHDU: Convergence failed at  78  side 2    Res =  0.3177E+00
 Side 1  free  transition at x/c =  0.5851   58
 Side 2  free  transition at x/c =  0.1620   29

   3   rms: 0.5365E+00   max: -.4401E+01   D at   79  2   RLX: 0.114
       a =  2.000      CL =  1.2266
      Cm = -0.2194     CD =  0.00934   =>   CDf =  0.00539    CDp =  0.00395

 MRCHDU: Convergence failed at  79  side 2    Res =  0.3841E-01
 Side 1  free  transition at x/c =  0.5863   59
 Side 2  free  transition at x/c =  0.1603   29

   4   rms: 0.3843E+00   max: -.2081E+01   D at   70  2   RLX: 0.240
       a =  2.000      CL =  1.3096
      Cm = -0.2434     CD =  0.01318   =>   CDf =  0.00550    CDp =  0.00768

 MRCHDU: Convergence failed at  79  side 2    Res =  0.1198E+00
 MRCHDU: Convergence failed at  81  side 2    Res =  0.2262E+00
 MRCHDU: Convergence failed at  82  side 2    Res =  0.2101E+00
 MRCHDU: Convergence failed at  83  side 2    Res =  0.1993E+00
 MRCHDU: Convergence failed at  84  side 2    Res =  0.1923E+00
 MRCHDU: Convergence failed at  85  side 2    Res =  0.1859E+00
 MRCHDU: Convergence failed at  86  side 2    Res =  0.1789E+00
 MRCHDU: Convergence failed at  87  side 2    Res =  0.1706E+00
 MRCHDU: Convergence failed at  88  side 2    Res =  0.1600E+00
 MRCHDU: Convergence failed at  89  side 2    Res =  0.1465E+00
 MRCHDU: Convergence failed at  90  side 2    Res =  0.1294E+00
 MRCHDU: Convergence failed at  91  side 2    Res =  0.1086E+00
 MRCHDU: Convergence failed at  92  side 2    Res =  0.8335E-01
 Side 1  free  transition at x/c =  0.5869   59
 Side 2  free  transition at x/c =  0.1596   29

   5   rms: 0.4936E+00   max: -.2320E+01   D at   70  2   RLX: 0.215
       a =  2.000      CL =  1.2873
      Cm = -0.2370     CD =  0.01456   =>   CDf =  0.00553    CDp =  0.00904

 Side 1  free  transition at x/c =  0.5875   59
 Side 2  free  transition at x/c =  0.1576   28

   6   rms: 0.5410E+00   max: -.2144E+01   D at   34  2   RLX: 0.233
       a =  2.000      CL =  1.2779
      Cm = -0.2322     CD =  0.01642   =>   CDf =  0.00557    CDp =  0.01085

 Side 1  free  transition at x/c =  0.5880   59
 Side 2  free  transition at x/c =  0.1591   28

   7   rms: 0.4117E+00   max: -.2001E+01   D at   69  2   RLX: 0.250
       a =  2.000      CL =  1.2775
      Cm = -0.2285     CD =  0.01629   =>   CDf =  0.00568    CDp =  0.01061

 Side 1  free  transition at x/c =  0.5882   59
 Side 2  free  transition at x/c =  0.1564   28

   8   rms: 0.4163E+00   max: -.1810E+01   D at   65  2   RLX: 0.276
       a =  2.000      CL =  1.2554
      Cm = -0.2208     CD =  0.01593   =>   CDf =  0.00582    CDp =  0.01011

 Side 1  free  transition at x/c =  0.5885   59
 Side 2  free  transition at x/c =  0.1487   28

   9   rms: 0.5241E+00   max: -.2233E+01   D at   55  2   RLX: 0.224
       a =  2.000      CL =  1.2308
      Cm = -0.2141     CD =  0.01550   =>   CDf =  0.00600    CDp =  0.00950

 MRCHDU: Convergence failed at  45  side 2    Res =  0.1349E+01
 Side 1  free  transition at x/c =  0.5887   59
 Side 2  free  transition at x/c =  0.1449   28

  10   rms: 0.4950E+00   max: -.2777E+01   D at   62  2   RLX: 0.180
       a =  2.000      CL =  1.2124
      Cm = -0.2094     CD =  0.01560   =>   CDf =  0.00643    CDp =  0.00917

 MRCHDU: Convergence failed at  57  side 2    Res =  0.5482E+00
 Side 1  free  transition at x/c =  0.5888   59
 Side 2  free  transition at x/c =  0.1427   27

  11   rms: 0.6009E+00   max: 0.3774E+01   T at   27  2   RLX: 0.135
       a =  2.000      CL =  1.1512
      Cm = -0.1966     CD =  0.01595   =>   CDf =  0.00691    CDp =  0.00904

 Side 1  free  transition at x/c =  0.5891   58
 Side 2  free  transition at x/c =  0.1360   28

  12   rms: 0.5173E+00   max: -.3610E+01   D at   77  2   RLX: 0.138
       a =  2.000      CL =  1.1334
      Cm = -0.1928     CD =  0.01523   =>   CDf =  0.00670    CDp =  0.00853

 Side 1  free  transition at x/c =  0.5892   58
 Side 2  free  transition at x/c =  0.1330   28

  13   rms: 0.5254E+00   max: -.3905E+01   D at   75  2   RLX: 0.128
       a =  2.000      CL =  1.1301
      Cm = -0.1919     CD =  0.01504   =>   CDf =  0.00690    CDp =  0.00815

 Side 1  free  transition at x/c =  0.5892   58
 Side 2  free  transition at x/c =  0.1320   28

  14   rms: 0.1902E+00   max: -.9923E+00   D at   73  2   RLX: 0.504
       a =  2.000      CL =  1.1820
      Cm = -0.1988     CD =  0.01558   =>   CDf =  0.00720    CDp =  0.00839

 Side 1  free  transition at x/c =  0.5889   58
 Side 2  free  transition at x/c =  0.1338   28

  15   rms: 0.9824E-01   max: -.4541E+00   D at   73  2
       a =  2.000      CL =  1.2444
      Cm = -0.2073     CD =  0.01622   =>   CDf =  0.00719    CDp =  0.00903

 Side 1  free  transition at x/c =  0.5884   59
 Side 2  free  transition at x/c =  0.1369   27

  16   rms: 0.1881E-01   max: 0.1419E+00   D at    3  1
       a =  2.000      CL =  1.2446
      Cm = -0.2071     CD =  0.01623   =>   CDf =  0.00744    CDp =  0.00879

 Side 1  free  transition at x/c =  0.5884   59
 Side 2  free  transition at x/c =  0.1374   27

  17   rms: 0.9183E-03   max: 0.9830E-02   D at    4  1
       a =  2.000      CL =  1.2446
      Cm = -0.2071     CD =  0.01622   =>   CDf =  0.00747    CDp =  0.00875

 Side 1  free  transition at x/c =  0.5884   59
 Side 2  free  transition at x/c =  0.1374   27

  18   rms: 0.1577E-05   max: 0.8363E-05   D at   44  2
       a =  2.000      CL =  1.2446
      Cm = -0.2071     CD =  0.01622   =>   CDf =  0.00747    CDp =  0.00875

 Point added to stored polar  1
 Point written to save file  000271M0.04.log                                 
 Dump file unspecified or not available
 Calculating wake trajectory ...
 Calculating source influence matrix ...

 Solving BL system ...

 Side 1  free  transition at x/c =  0.5884   59
 Side 2  free  transition at x/c =  0.1374   27

   1   rms: 0.1896E+00   max: -.1412E+01   T at   27  2   RLX: 0.354
       a =  3.000      CL =  1.2848
      Cm = -0.2073     CD =  0.01620   =>   CDf =  0.00748    CDp =  0.00872

 Side 1  free  transition at x/c =  0.5852   58
 Side 2  free  transition at x/c =  0.1475   28

   2   rms: 0.1136E+00   max: -.6738E+00   T at   28  2   RLX: 0.742
       a =  3.000      CL =  1.3335
      Cm = -0.2070     CD =  0.01636   =>   CDf =  0.00748    CDp =  0.00888

 Side 1  free  transition at x/c =  0.5772   59
 Side 2  free  transition at x/c =  0.1573   27

   3   rms: 0.8682E-01   max: -.4382E+00   T at   27  2
       a =  3.000      CL =  1.3542
      Cm = -0.2072     CD =  0.01648   =>   CDf =  0.00744    CDp =  0.00904

 Side 1  free  transition at x/c =  0.5758   59
 Side 2  free  transition at x/c =  0.1654   28

   4   rms: 0.8423E-01   max: 0.8066E+00   D at   28  2
       a =  3.000      CL =  1.3540
      Cm = -0.2072     CD =  0.01632   =>   CDf =  0.00758    CDp =  0.00874

 Side 1  free  transition at x/c =  0.5758   59
 Side 2  free  transition at x/c =  0.1630   28

   5   rms: 0.8599E-02   max: 0.5880E-01   D at   28  2
       a =  3.000      CL =  1.3538
      Cm = -0.2072     CD =  0.01634   =>   CDf =  0.00755    CDp =  0.00880

 Side 1  free  transition at x/c =  0.5758   59
 Side 2  free  transition at x/c =  0.1625   28

   6   rms: 0.2492E-03   max: -.1566E-02   D at   28  2
       a =  3.000      CL =  1.3538
      Cm = -0.2072     CD =  0.01634   =>   CDf =  0.00754    CDp =  0.00880

 Side 1  free  transition at x/c =  0.5758   59
 Side 2  free  transition at x/c =  0.1625   28

   7   rms: 0.9037E-06   max: -.4719E-05   T at   59  1
       a =  3.000      CL =  1.3538
      Cm = -0.2072     CD =  0.01634   =>   CDf =  0.00754    CDp =  0.00880

 Point added to stored polar  1
 Point written to save file  000271M0.04.log                                 
 Dump file unspecified or not available
 Calculating wake trajectory ...
 Calculating source influence matrix ...

 Solving BL system ...

 Side 1  free  transition at x/c =  0.5758   59
 Side 2  free  transition at x/c =  0.1625   28

   1   rms: 0.1794E+00   max: -.1436E+01   T at   28  2   RLX: 0.348
       a =  4.000      CL =  1.3914
      Cm = -0.2072     CD =  0.01639   =>   CDf =  0.00755    CDp =  0.00884

 Side 1  free  transition at x/c =  0.5715   59
 Side 2  free  transition at x/c =  0.1712   28

   2   rms: 0.1544E+00   max: -.1201E+01   T at   28  2   RLX: 0.416
       a =  4.000      CL =  1.4223
      Cm = -0.2073     CD =  0.01683   =>   CDf =  0.00731    CDp =  0.00952

 Side 1  free  transition at x/c =  0.5691   60
 Side 2  free  transition at x/c =  0.1809   28

   3   rms: 0.1037E+00   max: 0.1312E+01   T at    2  1   RLX: 0.783
       a =  4.000      CL =  1.4563
      Cm = -0.2076     CD =  0.01684   =>   CDf =  0.00765    CDp =  0.00918

 Side 1  free  transition at x/c =  0.5663   59
 Side 2  free  transition at x/c =  0.1883   28

   4   rms: 0.1959E-01   max: -.9902E-01   T at   28  2
       a =  4.000      CL =  1.4612
      Cm = -0.2070     CD =  0.01682   =>   CDf =  0.00758    CDp =  0.00925

 Side 1  free  transition at x/c =  0.5638   59
 Side 2  free  transition at x/c =  0.1904   28

   5   rms: 0.1788E-02   max: -.1346E-01   D at   29  2
       a =  4.000      CL =  1.4618
      Cm = -0.2071     CD =  0.01679   =>   CDf =  0.00753    CDp =  0.00927

 Side 1  free  transition at x/c =  0.5639   59
 Side 2  free  transition at x/c =  0.1906   28

   6   rms: 0.7449E-05   max: 0.6824E-04   D at   29  2
       a =  4.000      CL =  1.4618
      Cm = -0.2071     CD =  0.01679   =>   CDf =  0.00753    CDp =  0.00926

 Point added to stored polar  1
 Point written to save file  000271M0.04.log                                 
 Dump file unspecified or not available
 Calculating wake trajectory ...
 Calculating source influence matrix ...

 Solving BL system ...

 Side 1  free  transition at x/c =  0.5639   59
 Side 2  free  transition at x/c =  0.1906   28

   1   rms: 0.1841E+00   max: -.1664E+01   T at   28  2   RLX: 0.300
       a =  5.000      CL =  1.4929
      Cm = -0.2069     CD =  0.01700   =>   CDf =  0.00754    CDp =  0.00946

 Side 1  free  transition at x/c =  0.5594   59
 Side 2  free  transition at x/c =  0.2029   29

   2   rms: 0.1309E+00   max: 0.1040E+01   D at   29  2   RLX: 0.903
       a =  5.000      CL =  1.5612
      Cm = -0.2070     CD =  0.01714   =>   CDf =  0.00725    CDp =  0.00989

 Side 1  free  transition at x/c =  0.5525   60
 Side 2  free  transition at x/c =  0.2215   29

   3   rms: 0.3825E-01   max: 0.4094E+00   D at   29  2
       a =  5.000      CL =  1.5710
      Cm = -0.2073     CD =  0.01726   =>   CDf =  0.00750    CDp =  0.00977

 Side 1  free  transition at x/c =  0.5522   59
 Side 2  free  transition at x/c =  0.2227   29

   4   rms: 0.3205E-02   max: 0.2059E-01   D at   29  2
       a =  5.000      CL =  1.5709
      Cm = -0.2073     CD =  0.01727   =>   CDf =  0.00753    CDp =  0.00975

 Side 1  free  transition at x/c =  0.5520   59
 Side 2  free  transition at x/c =  0.2226   29

   5   rms: 0.2488E-04   max: 0.1918E-03   D at   30  2
       a =  5.000      CL =  1.5709
      Cm = -0.2073     CD =  0.01727   =>   CDf =  0.00752    CDp =  0.00975

 Point added to stored polar  1
 Point written to save file  000271M0.04.log                                 
 Dump file unspecified or not available
 Calculating wake trajectory ...
 Calculating source influence matrix ...

 Solving BL system ...

 Side 1  free  transition at x/c =  0.5520   59
 Side 2  free  transition at x/c =  0.2226   29

   1   rms: 0.1774E+00   max: -.1358E+01   T at   29  2   RLX: 0.368
       a =  6.000      CL =  1.6053
      Cm = -0.2066     CD =  0.01761   =>   CDf =  0.00753    CDp =  0.01008

 MRCHDU: Convergence failed at  31  side 2    Res =  0.6248E+01
 MRCHDU: Convergence failed at  32  side 2    Res =  0.2309E+02
 MRCHDU: Convergence failed at  33  side 2    Res =  0.9769E+01
 MRCHDU: Convergence failed at  34  side 2    Res =  0.4510E+01
 MRCHDU: Convergence failed at  35  side 2    Res =  0.7924E+01
 MRCHDU: Convergence failed at  36  side 2    Res =  0.1187E+02
 MRCHDU: Convergence failed at  37  side 2    Res =  0.1474E+02
 MRCHDU: Convergence failed at  38  side 2    Res =  0.1857E+02
 MRCHDU: Convergence failed at  39  side 2    Res =  0.2029E+02
 MRCHDU: Convergence failed at  40  side 2    Res =  0.2114E+02
 MRCHDU: Convergence failed at  41  side 2    Res =  0.2139E+02
 MRCHDU: Convergence failed at  42  side 2    Res =  0.2113E+02
 MRCHDU: Convergence failed at  43  side 2    Res =  0.2049E+02
 MRCHDU: Convergence failed at  44  side 2    Res =  0.1944E+02
 MRCHDU: Convergence failed at  45  side 2    Res =  0.1794E+02
 MRCHDU: Convergence failed at  46  side 2    Res =  0.1600E+02
 MRCHDU: Convergence failed at  47  side 2    Res =  0.1364E+02
 MRCHDU: Convergence failed at  48  side 2    Res =  0.1103E+02
 MRCHDU: Convergence failed at  49  side 2    Res =  0.8372E+01
 MRCHDU: Convergence failed at  50  side 2    Res =  0.6337E+01
 MRCHDU: Convergence failed at  51  side 2    Res =  0.4696E+01
 MRCHDU: Convergence failed at  52  side 2    Res =  0.3609E+01
 MRCHDU: Convergence failed at  53  side 2    Res =  0.3547E+02
 MRCHDU: Convergence failed at  54  side 2    Res =  0.6922E+02
 Side 1  free  transition at x/c =  0.5465   59
 Side 2  free  transition at x/c =  0.2399   30

   2   rms: 0.1848E+00   max: -.7519E+00   D at   54  2   RLX: 0.665
       a =  6.000      CL =  1.6301
      Cm = -0.2036     CD =  0.01745   =>   CDf =  0.00643    CDp =  0.01102

 MRCHDU: Convergence failed at  41  side 2    Res =  0.1716E+00
 MRCHDU: Convergence failed at  42  side 2    Res =  0.2129E+00
 MRCHDU: Convergence failed at  43  side 2    Res =  0.2514E+00
 MRCHDU: Convergence failed at  44  side 2    Res =  0.2879E+00
 MRCHDU: Convergence failed at  45  side 2    Res =  0.3232E+00
 MRCHDU: Convergence failed at  46  side 2    Res =  0.3574E+00
 MRCHDU: Convergence failed at  47  side 2    Res =  0.3905E+00
 MRCHDU: Convergence failed at  48  side 2    Res =  0.4223E+00
 MRCHDU: Convergence failed at  49  side 2    Res =  0.4524E+00
 MRCHDU: Convergence failed at  50  side 2    Res =  0.4807E+00
 MRCHDU: Convergence failed at  51  side 2    Res =  0.5064E+00
 MRCHDU: Convergence failed at  52  side 2    Res =  0.5288E+00
 MRCHDU: Convergence failed at  53  side 2    Res =  0.5464E+00
 MRCHDU: Convergence failed at  54  side 2    Res =  0.7164E+00
 MRCHDU: Convergence failed at  55  side 2    Res =  0.8678E+00
 MRCHDU: Convergence failed at  56  side 2    Res =  0.1008E+01
 MRCHDU: Convergence failed at  57  side 2    Res =  0.1123E+01
 MRCHDU: Convergence failed at  58  side 2    Res =  0.1171E+01
 MRCHDU: Convergence failed at  59  side 2    Res =  0.1245E+01
 MRCHDU: Convergence failed at  60  side 2    Res =  0.1303E+01
 MRCHDU: Convergence failed at  61  side 2    Res =  0.1353E+01
 MRCHDU: Convergence failed at  62  side 2    Res =  0.1395E+01
 MRCHDU: Convergence failed at  63  side 2    Res =  0.1435E+01
 MRCHDU: Convergence failed at  64  side 2    Res =  0.1540E+01
 MRCHDU: Convergence failed at  65  side 2    Res =  0.1693E+01
 MRCHDU: Convergence failed at  66  side 2    Res =  0.2368E+01
 MRCHDU: Convergence failed at  67  side 2    Res =  0.2447E+01
 MRCHDU: Convergence failed at  68  side 2    Res =  0.2715E+01
 MRCHDU: Convergence failed at  69  side 2    Res =  0.2798E+01
 MRCHDU: Convergence failed at  70  side 2    Res =  0.2858E+01
 MRCHDU: Convergence failed at  71  side 2    Res =  0.2913E+01
 MRCHDU: Convergence failed at  72  side 2    Res =  0.2967E+01
 MRCHDU: Convergence failed at  73  side 2    Res =  0.3017E+01
 MRCHDU: Convergence failed at  74  side 2    Res =  0.3069E+01
 MRCHDU: Convergence failed at  75  side 2    Res =  0.3167E+01
 Side 1  free  transition at x/c =  0.5408   60
 Side 2  free  transition at x/c =  0.2353   29

   3   rms: 0.1083E+01   max: -.4494E+01   D at   77  2   RLX: 0.111
       a =  6.000      CL =  1.7089
      Cm = -0.2702     CD =  0.02661   =>   CDf =  0.00508    CDp =  0.02154

 Side 1  free  transition at x/c =  0.5402   60
 Side 2  free  transition at x/c =  0.2385   29

   4   rms: 0.1462E+01   max: -.9146E+01   D at   60  2   RLX: 0.055
       a =  6.000      CL =  1.7113
      Cm = -0.2751     CD =  0.03326   =>   CDf =  0.00516    CDp =  0.02810

 MRCHDU: Convergence failed at  59  side 2    Res =  0.7467E-02
 Side 1  free  transition at x/c =  0.5400   60
 Side 2  free  transition at x/c =  0.2490   30

   5   rms: 0.1069E+01   max: -.7324E+01   D at   59  2   RLX: 0.068
       a =  6.000      CL =  1.6971
      Cm = -0.2696     CD =  0.02791   =>   CDf =  0.00543    CDp =  0.02249

 MRCHDU: Convergence failed at  60  side 2    Res =  0.1857E+00
 MRCHDU: Convergence failed at  61  side 2    Res =  0.4792E+00
 MRCHDU: Convergence failed at  62  side 2    Res =  0.4368E+00
 MRCHDU: Convergence failed at  63  side 2    Res =  0.4276E+00
 MRCHDU: Convergence failed at  64  side 2    Res =  0.4363E+00
 MRCHDU: Convergence failed at  65  side 2    Res =  0.4623E+00
 MRCHDU: Convergence failed at  66  side 2    Res =  0.4392E-01
 Side 1  free  transition at x/c =  0.5397   59
 Side 2  free  transition at x/c =  0.2534   31

   6   rms: 0.3668E+02   max: 0.3342E+03   T at   31  2   RLX: 0.004
       a =  6.000      CL =  1.6795
      Cm = -0.2708     CD =  0.03612   =>   CDf =  0.00507    CDp =  0.03105

 MRCHDU: Convergence failed at  31  side 2    Res =  0.5213E+01
 Side 1  free  transition at x/c =  0.5398   59
 Side 2  free  transition at x/c =  0.2264   30

   7   rms: 0.1158E+01   max: -.7593E+01   D at   67  2   RLX: 0.066
       a =  6.000      CL =  1.6404
      Cm = -0.2626     CD =  0.03482   =>   CDf =  0.00493    CDp =  0.02989

 Side 1  free  transition at x/c =  0.5394   59
 Side 2  free  transition at x/c =  0.2279   30

   8   rms: 0.9811E+00   max: -.6440E+01   D at   67  2   RLX: 0.078
       a =  6.000      CL =  1.6283
      Cm = -0.2581     CD =  0.03008   =>   CDf =  0.00491    CDp =  0.02517

 Side 1  free  transition at x/c =  0.5390   59
 Side 2  free  transition at x/c =  0.2319   30

   9   rms: 0.1372E+01   max: -.1089E+02   T at   30  2   RLX: 0.046
       a =  6.000      CL =  1.6523
      Cm = -0.2611     CD =  0.02735   =>   CDf =  0.00492    CDp =  0.02242

 MRCHDU: Convergence failed at  67  side 2    Res =  0.1233E-03
 Side 1  free  transition at x/c =  0.5387   59
 Side 2  free  transition at x/c =  0.2454   31

  10   rms: 0.2062E+01   max: -.1733E+02   T at   31  2   RLX: 0.029
       a =  6.000      CL =  1.6904
      Cm = -0.2682     CD =  0.02403   =>   CDf =  0.00501    CDp =  0.01902

 Side 1  free  transition at x/c =  0.5386   59
 Side 2  free  transition at x/c =  0.2612   32

  11   rms: 0.8687E+00   max: -.4154E+01   D at   66  2   RLX: 0.120
       a =  6.000      CL =  1.7198
      Cm = -0.2676     CD =  0.01953   =>   CDf =  0.00492    CDp =  0.01461

 Side 1  free  transition at x/c =  0.5383   60
 Side 2  free  transition at x/c =  0.2694   31

  12   rms: 0.9658E+00   max: 0.1196E+02   T at   31  2   RLX: 0.070
       a =  6.000      CL =  1.6911
      Cm = -0.2585     CD =  0.02021   =>   CDf =  0.00521    CDp =  0.01500

 Side 1  free  transition at x/c =  0.5383   60
 Side 2  free  transition at x/c =  0.2511   30

  13   rms: 0.1300E+01   max: -.9578E+01   T at   30  2   RLX: 0.052
       a =  6.000      CL =  1.7171
      Cm = -0.2612     CD =  0.02001   =>   CDf =  0.00514    CDp =  0.01487

 Side 1  free  transition at x/c =  0.5382   60
 Side 2  free  transition at x/c =  0.2665   31

  14   rms: 0.7750E+00   max: -.3625E+01   D at   57  2   RLX: 0.138
       a =  6.000      CL =  1.7188
      Cm = -0.2562     CD =  0.01829   =>   CDf =  0.00527    CDp =  0.01302

 Side 1  free  transition at x/c =  0.5381   60
 Side 2  free  transition at x/c =  0.2728   31

  15   rms: 0.1175E+01   max: -.5098E+01   D at   45  2   RLX: 0.098
       a =  6.000      CL =  1.7218
      Cm = -0.2530     CD =  0.01777   =>   CDf =  0.00543    CDp =  0.01234

 Side 1  free  transition at x/c =  0.5381   60
 Side 2  free  transition at x/c =  0.2960   33

  16   rms: 0.7176E+00   max: -.2705E+01   D at   52  2   RLX: 0.185
       a =  6.000      CL =  1.6823
      Cm = -0.2396     CD =  0.01743   =>   CDf =  0.00566    CDp =  0.01177

 Side 1  free  transition at x/c =  0.5383   60
 Side 2  free  transition at x/c =  0.2913   33

  17   rms: 0.6268E+00   max: -.2511E+01   D at   39  2   RLX: 0.199
       a =  6.000      CL =  1.6313
      Cm = -0.2243     CD =  0.01751   =>   CDf =  0.00586    CDp =  0.01165

 Side 1  free  transition at x/c =  0.5386   60
 Side 2  free  transition at x/c =  0.2824   32

  18   rms: 0.4180E+00   max: 0.2260E+01   T at   32  2   RLX: 0.273
       a =  6.000      CL =  1.5543
      Cm = -0.2033     CD =  0.01759   =>   CDf =  0.00618    CDp =  0.01141

 Side 1  free  transition at x/c =  0.5391   59
 Side 2  free  transition at x/c =  0.2576   32

  19   rms: 0.6779E+00   max: 0.5030E+01   T at   32  2   RLX: 0.125
       a =  6.000      CL =  1.4827
      Cm = -0.1879     CD =  0.01783   =>   CDf =  0.00620    CDp =  0.01164

 Side 1  free  transition at x/c =  0.5396   59
 Side 2  free  transition at x/c =  0.2448   31

  20   rms: 0.3299E+00   max: -.2979E+01   D at   76  2   RLX: 0.168
       a =  6.000      CL =  1.4799
      Cm = -0.1851     CD =  0.01702   =>   CDf =  0.00625    CDp =  0.01076

 Side 1  free  transition at x/c =  0.5397   59
 Side 2  free  transition at x/c =  0.2416   31

  21   rms: 0.3010E+00   max: -.2045E+01   D at   73  2   RLX: 0.245
       a =  6.000      CL =  1.5152
      Cm = -0.1884     CD =  0.01691   =>   CDf =  0.00640    CDp =  0.01050

 Side 1  free  transition at x/c =  0.5397   59
 Side 2  free  transition at x/c =  0.2439   31

  22   rms: 0.3749E+00   max: -.2856E+01   D at   70  2   RLX: 0.175
       a =  6.000      CL =  1.5435
      Cm = -0.1920     CD =  0.01687   =>   CDf =  0.00660    CDp =  0.01027

 Side 1  free  transition at x/c =  0.5396   59
 Side 2  free  transition at x/c =  0.2467   31

  23   rms: 0.1813E+00   max: -.1023E+01   D at   69  2   RLX: 0.489
       a =  6.000      CL =  1.6079
      Cm = -0.1992     CD =  0.01744   =>   CDf =  0.00664    CDp =  0.01081

 Side 1  free  transition at x/c =  0.5394   60
 Side 2  free  transition at x/c =  0.2530   30

  24   rms: 0.9948E-01   max: -.5705E+00   D at   67  2   RLX: 0.876
       a =  6.000      CL =  1.6677
      Cm = -0.2063     CD =  0.01786   =>   CDf =  0.00707    CDp =  0.01079

 Side 1  free  transition at x/c =  0.5392   60
 Side 2  free  transition at x/c =  0.2603   31

  25   rms: 0.1549E-01   max: 0.1417E+00   D at   31  2
       a =  6.000      CL =  1.6736
      Cm = -0.2068     CD =  0.01791   =>   CDf =  0.00721    CDp =  0.01070
 VISCAL:  Convergence failed
 Calculating wake trajectory ...
 Calculating source influence matrix ...

 Solving BL system ...

 Side 1  free  transition at x/c =  0.5391   60
 Side 2  free  transition at x/c =  0.2595   31

   1   rms: 0.2001E+00   max: -.1849E+01   T at   31  2   RLX: 0.270
       a =  7.000      CL =  1.7027
      Cm = -0.2069     CD =  0.01802   =>   CDf =  0.00725    CDp =  0.01077

 Side 1  free  transition at x/c =  0.5362   60
 Side 2  free  transition at x/c =  0.2701   31

   2   rms: 0.1548E+00   max: -.1593E+01   T at   31  2   RLX: 0.314
       a =  7.000      CL =  1.7290
      Cm = -0.2071     CD =  0.01868   =>   CDf =  0.00700    CDp =  0.01167

 Side 1  free  transition at x/c =  0.5341   60
 Side 2  free  transition at x/c =  0.2855   31

   3   rms: 0.8471E-01   max: 0.5515E+00   D at   32  2
       a =  7.000      CL =  1.7677
      Cm = -0.2052     CD =  0.01902   =>   CDf =  0.00712    CDp =  0.01190

 Side 1  free  transition at x/c =  0.5251   60
 Side 2  free  transition at x/c =  0.3062   33

   4   rms: 0.1700E-01   max: -.1229E+00   D at   61  1
       a =  7.000      CL =  1.7736
      Cm = -0.2060     CD =  0.01884   =>   CDf =  0.00695    CDp =  0.01189

 Side 1  free  transition at x/c =  0.5262   60
 Side 2  free  transition at x/c =  0.3084   33

   5   rms: 0.2894E-02   max: 0.3405E-01   D at   33  2
       a =  7.000      CL =  1.7736
      Cm = -0.2060     CD =  0.01884   =>   CDf =  0.00690    CDp =  0.01194

 Side 1  free  transition at x/c =  0.5262   60
 Side 2  free  transition at x/c =  0.3079   33

   6   rms: 0.3274E-04   max: -.6043E-03   D at   35  2
       a =  7.000      CL =  1.7736
      Cm = -0.2060     CD =  0.01884   =>   CDf =  0.00690    CDp =  0.01194

 Point added to stored polar  1
 Point written to save file  000271M0.04.log                                 
 Dump file unspecified or not available
 Calculating wake trajectory ...
 Calculating source influence matrix ...

 Solving BL system ...

 Side 1  free  transition at x/c =  0.5262   60
 Side 2  free  transition at x/c =  0.3079   33

   1   rms: 0.1982E+00   max: -.1841E+01   T at   33  2   RLX: 0.272
       a =  8.000      CL =  1.8008
      Cm = -0.2058     CD =  0.01903   =>   CDf =  0.00662    CDp =  0.01241

 Side 1  free  transition at x/c =  0.5228   61
 Side 2  free  transition at x/c =  0.3204   32

   2   rms: 0.1762E+00   max: -.2022E+01   T at   32  2   RLX: 0.247
       a =  8.000      CL =  1.8210
      Cm = -0.2058     CD =  0.01949   =>   CDf =  0.00693    CDp =  0.01256

 MRCHDU: Convergence failed at  34  side 2    Res =  0.1200E+02
 MRCHDU: Convergence failed at  35  side 2    Res =  0.4292E+01
 MRCHDU: Convergence failed at  36  side 2    Res =  0.5699E+01
 MRCHDU: Convergence failed at  37  side 2    Res =  0.8653E+01
 MRCHDU: Convergence failed at  38  side 2    Res =  0.9549E+01
 MRCHDU: Convergence failed at  39  side 2    Res =  0.9380E+01
 MRCHDU: Convergence failed at  40  side 2    Res =  0.6896E+01
 MRCHDU: Convergence failed at  41  side 2    Res =  0.5222E+01
 MRCHDU: Convergence failed at  42  side 2    Res =  0.3865E+01
 MRCHDU: Convergence failed at  43  side 2    Res =  0.2809E+01
 Side 1  free  transition at x/c =  0.5208   61
 Side 2  free  transition at x/c =  0.3373   34

   3   rms: 0.1616E+00   max: -.9761E+00   D at   42  2   RLX: 0.512
       a =  8.000      CL =  1.8486
      Cm = -0.2054     CD =  0.01937   =>   CDf =  0.00659    CDp =  0.01277

 Side 1  free  transition at x/c =  0.5183   60
 Side 2  free  transition at x/c =  0.3676   36

   4   rms: 0.1090E+00   max: -.7055E+00   T at   36  2   RLX: 0.709
       a =  8.000      CL =  1.8646
      Cm = -0.2052     CD =  0.01975   =>   CDf =  0.00685    CDp =  0.01290

 Side 1  free  transition at x/c =  0.5148   60
 Side 2  free  transition at x/c =  0.3806   36

   5   rms: 0.4590E-01   max: -.6105E+00   D at   37  2   RLX: 0.819
       a =  8.000      CL =  1.8710
      Cm = -0.2051     CD =  0.01994   =>   CDf =  0.00634    CDp =  0.01360

 Side 1  free  transition at x/c =  0.5138   61
 Side 2  free  transition at x/c =  0.3991   37

   6   rms: 0.1229E-01   max: -.1960E+00   D at   36  2
       a =  8.000      CL =  1.8726
      Cm = -0.2052     CD =  0.01983   =>   CDf =  0.00656    CDp =  0.01327

 Side 1  free  transition at x/c =  0.5136   61
 Side 2  free  transition at x/c =  0.3981   36

   7   rms: 0.3438E-02   max: 0.5179E-01   C at   36  2
       a =  8.000      CL =  1.8727
      Cm = -0.2052     CD =  0.01983   =>   CDf =  0.00653    CDp =  0.01329

 Side 1  free  transition at x/c =  0.5136   61
 Side 2  free  transition at x/c =  0.3964   36

   8   rms: 0.7571E-04   max: -.1051E-02   C at   36  2
       a =  8.000      CL =  1.8727
      Cm = -0.2052     CD =  0.01983   =>   CDf =  0.00653    CDp =  0.01329

 Point added to stored polar  1
 Point written to save file  000271M0.04.log                                 
 Dump file unspecified or not available
 Calculating wake trajectory ...
 Calculating source influence matrix ...

 Solving BL system ...

 Side 1  free  transition at x/c =  0.5136   61
 Side 2  free  transition at x/c =  0.3964   36

   1   rms: 0.2387E+00   max: -.2782E+01   C at   36  2   RLX: 0.180
       a =  9.000      CL =  1.8889
      Cm = -0.2049     CD =  0.02004   =>   CDf =  0.00655    CDp =  0.01349

 Side 1  free  transition at x/c =  0.5109   61
 Side 2  free  transition at x/c =  0.4280   38

   2   rms: 0.2022E+00   max: -.1991E+01   T at   38  2   RLX: 0.251
       a =  9.000      CL =  1.9095
      Cm = -0.2047     CD =  0.02030   =>   CDf =  0.00648    CDp =  0.01382

 Side 1  free  transition at x/c =  0.5080   61
 Side 2 forced transition at x/c =  1.0001   72

   3   rms: 0.1538E+00   max: -.5382E+00   D at   37  2   RLX: 0.929
       a =  9.000      CL =  1.9675
      Cm = -0.2042     CD =  0.02026   =>   CDf =  0.00567    CDp =  0.01459

 Side 1  free  transition at x/c =  0.4956   61
 Side 2 forced transition at x/c =  1.0001   71

   4   rms: 0.4152E-01   max: -.2674E+00   D at   61  1
       a =  9.000      CL =  1.9645
      Cm = -0.2029     CD =  0.02023   =>   CDf =  0.00594    CDp =  0.01428

 Side 1  free  transition at x/c =  0.4974   61
 Side 2 forced transition at x/c =  1.0001   71

   5   rms: 0.7135E-02   max: 0.3526E-01   D at   29  2
       a =  9.000      CL =  1.9637
      Cm = -0.2029     CD =  0.02033   =>   CDf =  0.00586    CDp =  0.01447

 Side 1  free  transition at x/c =  0.4969   61
 Side 2 forced transition at x/c =  1.0001   71

   6   rms: 0.4261E-03   max: 0.2455E-02   D at   30  2
       a =  9.000      CL =  1.9636
      Cm = -0.2029     CD =  0.02033   =>   CDf =  0.00587    CDp =  0.01447

 Side 1  free  transition at x/c =  0.4969   61
 Side 2 forced transition at x/c =  1.0001   71

   7   rms: 0.2721E-05   max: -.2865E-04   C at   71  2
       a =  9.000      CL =  1.9636
      Cm = -0.2029     CD =  0.02033   =>   CDf =  0.00587    CDp =  0.01447

 Point added to stored polar  1
 Point written to save file  000271M0.04.log                                 
 Dump file unspecified or not available
 Calculating wake trajectory ...
 Calculating source influence matrix ...

 Solving BL system ...

 Side 1  free  transition at x/c =  0.4969   61
 Side 2 forced transition at x/c =  1.0001   71

   1   rms: 0.1605E+00   max: 0.6873E+00   T at   61  1
       a = 10.000      CL =  2.0349
      Cm = -0.1974     CD =  0.02106   =>   CDf =  0.00556    CDp =  0.01551

 Side 1  free  transition at x/c =  0.4695   60
 Side 2 forced transition at x/c =  1.0001   70

   2   rms: 0.8573E-01   max: -.5135E+00   D at   61  1   RLX: 0.974
       a = 10.000      CL =  2.0622
      Cm = -0.2016     CD =  0.02027   =>   CDf =  0.00570    CDp =  0.01457

 Side 1  free  transition at x/c =  0.4733   61
 Side 2 forced transition at x/c =  1.0001   70

   3   rms: 0.3105E-01   max: 0.1529E+00   D at   61  1
       a = 10.000      CL =  2.0430
      Cm = -0.1987     CD =  0.02103   =>   CDf =  0.00568    CDp =  0.01535

 Side 1  free  transition at x/c =  0.4719   61
 Side 2 forced transition at x/c =  1.0001   70

   4   rms: 0.1465E-02   max: -.1482E-01   D at   63  1
       a = 10.000      CL =  2.0423
      Cm = -0.1985     CD =  0.02112   =>   CDf =  0.00575    CDp =  0.01536

 Side 1  free  transition at x/c =  0.4716   61
 Side 2 forced transition at x/c =  1.0001   70

   5   rms: 0.2596E-04   max: -.3224E-03   D at   63  1
       a = 10.000      CL =  2.0423
      Cm = -0.1985     CD =  0.02112   =>   CDf =  0.00577    CDp =  0.01535

 Point added to stored polar  1
 Point written to save file  000271M0.04.log                                 
 Dump file unspecified or not available
 Calculating wake trajectory ...
 Calculating source influence matrix ...

 Solving BL system ...

 Side 1  free  transition at x/c =  0.4716   61
 Side 2 forced transition at x/c =  1.0001   70

   1   rms: 0.1770E+00   max: -.7129E+00   D at   62  1   RLX: 0.701
       a = 11.000      CL =  2.1196
      Cm = -0.1989     CD =  0.02140   =>   CDf =  0.00543    CDp =  0.01597

 Side 1  free  transition at x/c =  0.4501   60
 Side 2 forced transition at x/c =  1.0001   69

   2   rms: 0.6114E-01   max: -.4543E+00   D at   61  1
       a = 11.000      CL =  2.0973
      Cm = -0.1916     CD =  0.02259   =>   CDf =  0.00548    CDp =  0.01711

 Side 1  free  transition at x/c =  0.4439   60
 Side 2 forced transition at x/c =  1.0001   69

   3   rms: 0.2725E-01   max: 0.1177E+00   D at   72  2
       a = 11.000      CL =  2.0742
      Cm = -0.1881     CD =  0.02377   =>   CDf =  0.00538    CDp =  0.01838

 Side 1  free  transition at x/c =  0.4440   60
 Side 2 forced transition at x/c =  1.0001   69

   4   rms: 0.1142E-02   max: 0.1418E-01   D at   74  2
       a = 11.000      CL =  2.0742
      Cm = -0.1881     CD =  0.02377   =>   CDf =  0.00541    CDp =  0.01836

 Side 1  free  transition at x/c =  0.4439   60
 Side 2 forced transition at x/c =  1.0001   69

   5   rms: 0.1725E-04   max: 0.4145E-03   D at   75  2
       a = 11.000      CL =  2.0742
      Cm = -0.1881     CD =  0.02377   =>   CDf =  0.00541    CDp =  0.01836

 Point added to stored polar  1
 Point written to save file  000271M0.04.log                                 
 Dump file unspecified or not available
 Calculating wake trajectory ...
 Calculating source influence matrix ...

 Solving BL system ...

 Side 1  free  transition at x/c =  0.4439   60
 Side 2 forced transition at x/c =  1.0001   69

   1   rms: 0.1373E+00   max: -.4228E+00   D at   61  1
       a = 12.000      CL =  2.1128
      Cm = -0.1800     CD =  0.02700   =>   CDf =  0.00504    CDp =  0.02196

 Side 1  free  transition at x/c =  0.4124   59
 Side 2 forced transition at x/c =  1.0001   68

   2   rms: 0.4453E-01   max: 0.4804E+00   D at   60  1
       a = 12.000      CL =  2.0919
      Cm = -0.1789     CD =  0.02911   =>   CDf =  0.00526    CDp =  0.02385

 Side 1  free  transition at x/c =  0.4167   59
 Side 2 forced transition at x/c =  1.0001   68

   3   rms: 0.5477E-02   max: 0.3673E-01   C at   59  1
       a = 12.000      CL =  2.0964
      Cm = -0.1794     CD =  0.02865   =>   CDf =  0.00506    CDp =  0.02360

 Side 1  free  transition at x/c =  0.4151   59
 Side 2 forced transition at x/c =  1.0001   68

   4   rms: 0.1465E-03   max: -.1616E-02   C at   59  1
       a = 12.000      CL =  2.0964
      Cm = -0.1794     CD =  0.02866   =>   CDf =  0.00508    CDp =  0.02358

 Side 1  free  transition at x/c =  0.4151   59
 Side 2 forced transition at x/c =  1.0001   68

   5   rms: 0.8715E-05   max: -.3373E-04   D at   81  1
       a = 12.000      CL =  2.0964
      Cm = -0.1794     CD =  0.02866   =>   CDf =  0.00508    CDp =  0.02358

 Point added to stored polar  1
 Point written to save file  000271M0.04.log                                 
 Dump file unspecified or not available
 Calculating wake trajectory ...
 Calculating source influence matrix ...

 Solving BL system ...

 Side 1  free  transition at x/c =  0.4151   59
 Side 2 forced transition at x/c =  1.0001   68

   1   rms: 0.1469E+00   max: 0.5009E+00   D at   80  1
       a = 13.000      CL =  2.1054
      Cm = -0.1712     CD =  0.03569   =>   CDf =  0.00470    CDp =  0.03100

 Side 1  free  transition at x/c =  0.3586   56
 Side 2 forced transition at x/c =  1.0001   67

   2   rms: 0.5915E-01   max: -.5840E+00   T at    2  1   RLX: 0.856
       a = 13.000      CL =  2.0844
      Cm = -0.1702     CD =  0.03783   =>   CDf =  0.00561    CDp =  0.03222

 Side 1  free  transition at x/c =  0.3760   57
 Side 2 forced transition at x/c =  1.0001   68

   3   rms: 0.1307E-01   max: 0.1490E+00   C at   57  1
       a = 13.000      CL =  2.0845
      Cm = -0.1701     CD =  0.03772   =>   CDf =  0.00483    CDp =  0.03289

 Side 1  free  transition at x/c =  0.3730   56
 Side 2 forced transition at x/c =  1.0001   68

   4   rms: 0.1738E-02   max: -.1512E-01   D at   59  1
       a = 13.000      CL =  2.0849
      Cm = -0.1702     CD =  0.03769   =>   CDf =  0.00487    CDp =  0.03282

 Side 1  free  transition at x/c =  0.3722   56
 Side 2 forced transition at x/c =  1.0001   68

   5   rms: 0.7248E-04   max: -.4700E-03   C at   56  1
       a = 13.000      CL =  2.0850
      Cm = -0.1702     CD =  0.03769   =>   CDf =  0.00487    CDp =  0.03282

 Point added to stored polar  1
 Point written to save file  000271M0.04.log                                 
 Dump file unspecified or not available
 Calculating wake trajectory ...
 Calculating source influence matrix ...

 Solving BL system ...

 Side 1  free  transition at x/c =  0.3722   56
 Side 2 forced transition at x/c =  1.0001   68

   1   rms: 0.1695E+00   max: 0.7324E+00   D at   76  1   RLX: 0.785
       a = 14.000      CL =  2.0638
      Cm = -0.1645     CD =  0.04811   =>   CDf =  0.00448    CDp =  0.04363

 Side 1  free  transition at x/c =  0.3017   53
 Side 2 forced transition at x/c =  1.0001   67

   2   rms: 0.6341E-01   max: 0.5200E+00   D at   76  1
       a = 14.000      CL =  2.0327
      Cm = -0.1616     CD =  0.05370   =>   CDf =  0.00516    CDp =  0.04853

 Side 1  free  transition at x/c =  0.3006   53
 Side 2 forced transition at x/c =  1.0001   67

   3   rms: 0.1004E-01   max: 0.9414E-01   D at   75  1
       a = 14.000      CL =  2.0288
      Cm = -0.1613     CD =  0.05352   =>   CDf =  0.00492    CDp =  0.04860

 Side 1  free  transition at x/c =  0.3026   53
 Side 2 forced transition at x/c =  1.0001   67

   4   rms: 0.5666E-03   max: -.6556E-02   C at   53  1
       a = 14.000      CL =  2.0286
      Cm = -0.1612     CD =  0.05341   =>   CDf =  0.00488    CDp =  0.04853

 Side 1  free  transition at x/c =  0.3029   53
 Side 2 forced transition at x/c =  1.0001   67

   5   rms: 0.1100E-04   max: -.9087E-04   D at   82  2
       a = 14.000      CL =  2.0286
      Cm = -0.1612     CD =  0.05341   =>   CDf =  0.00488    CDp =  0.04853

 Point added to stored polar  1
 Point written to save file  000271M0.04.log                                 
 Dump file unspecified or not available
 Calculating wake trajectory ...
 Calculating source influence matrix ...

 Solving BL system ...

 Side 1  free  transition at x/c =  0.3029   53
 Side 2 forced transition at x/c =  1.0001   67

   1   rms: 0.2092E+00   max: 0.2103E+01   C at   53  1   RLX: 0.588
       a = 15.000      CL =  1.9850
      Cm = -0.1573     CD =  0.06634   =>   CDf =  0.00489    CDp =  0.06145

 Side 1  free  transition at x/c =  0.2340   48
 Side 2 forced transition at x/c =  1.0001   67

   2   rms: 0.9818E-01   max: 0.7042E+00   D at   72  1
       a = 15.000      CL =  1.9397
      Cm = -0.1551     CD =  0.07793   =>   CDf =  0.00533    CDp =  0.07259

 Side 1  free  transition at x/c =  0.1928   46
 Side 2 forced transition at x/c =  1.0001   67

   3   rms: 0.3359E-01   max: -.5503E+00   C at   46  1   RLX: 0.909
       a = 15.000      CL =  1.9314
      Cm = -0.1551     CD =  0.07712   =>   CDf =  0.00552    CDp =  0.07161

 Side 1  free  transition at x/c =  0.2064   46
 Side 2 forced transition at x/c =  1.0001   67

   4   rms: 0.1200E-01   max: -.2381E+00   C at   46  1
       a = 15.000      CL =  1.9273
      Cm = -0.1544     CD =  0.07742   =>   CDf =  0.00530    CDp =  0.07211

 Side 1  free  transition at x/c =  0.2142   47
 Side 2 forced transition at x/c =  1.0001   67

   5   rms: 0.4545E-02   max: 0.9040E-01   C at   47  1
       a = 15.000      CL =  1.9286
      Cm = -0.1544     CD =  0.07717   =>   CDf =  0.00519    CDp =  0.07198

 Side 1  free  transition at x/c =  0.2115   47
 Side 2 forced transition at x/c =  1.0001   67

   6   rms: 0.3195E-03   max: -.6336E-02   C at   47  1
       a = 15.000      CL =  1.9285
      Cm = -0.1544     CD =  0.07720   =>   CDf =  0.00523    CDp =  0.07197

 Side 1  free  transition at x/c =  0.2117   47
 Side 2 forced transition at x/c =  1.0001   67

   7   rms: 0.6208E-05   max: -.6744E-04   C at   67  2
       a = 15.000      CL =  1.9285
      Cm = -0.1544     CD =  0.07720   =>   CDf =  0.00522    CDp =  0.07197

 Point added to stored polar  1
 Point written to save file  000271M0.04.log                                 
 Dump file unspecified or not available

.OPERva   c>  
 XFOIL   c>  
0.1
resp: 
 ===================================================
  XFOIL Version 6.97
  Copyright (C) 2000   Mark Drela, Harold Youngren

  This software comes with ABSOLUTELY NO WARRANTY,
    subject to the GNU General Public License.

  Caveat computor
 ===================================================

 File  xfoil.def  not found

   QUIT    Exit program

  .OPER    Direct operating point(s)
  .MDES    Complex mapping design routine
  .QDES    Surface speed design routine
  .GDES    Geometry design routine

   SAVE f  Write airfoil to labeled coordinate file
   PSAV f  Write airfoil to plain coordinate file
   ISAV f  Write airfoil to ISES coordinate file
   MSAV f  Write airfoil to MSES coordinate file
   REVE    Reverse written-airfoil node ordering
   DELI i  Change written-airfoil file delimiters

   LOAD f  Read buffer airfoil from coordinate file
   NACA i  Set NACA 4,5-digit airfoil and buffer airfoil
   INTE    Set buffer airfoil by interpolating two airfoils
   NORM    Buffer airfoil normalization toggle
   HALF    Halve the number of points in buffer airfoil
   XYCM rr Change CM reference location, currently  0.25000 0.00000

   BEND    Display structural properties of current airfoil

   PCOP    Set current-airfoil panel nodes directly from buffer airfoil points
   PANE    Set current-airfoil panel nodes ( 160 ) based on curvature
  .PPAR    Show/change paneling

  .PLOP    Plotting options

   WDEF f  Write  current-settings file
   RDEF f  Reread current-settings file
   NAME s  Specify new airfoil name
   NINC    Increment name version number

   Z       Zoom    | (available in all menus)
   U       Unzoom  | 

 XFOIL   c>   ...............................................

  G raphics-enable flag:        T
  S ize of plot object          10.00"
  A spect ratio of plot object   0.5500
  P age dimensions              11.00 x  8.50"
  M argins from page edges       0.00",  0.00"
  F ont size (relative)          0.0150
  W indow/screen size fraction   0.8000
  B lowup input method:        Cursor    
  O rientation of plot:        Landscape 
  C olor PostScript output?     F

      Option, Value   (or <Return>)    c>   ...............................................

  G raphics-enable flag:        F
  S ize of plot object          10.00"
  A spect ratio of plot object   0.5500
  P age dimensions              11.00 x  8.50"
  M argins from page edges       0.00",  0.00"
  F ont size (relative)          0.0150
  W indow/screen size fraction   0.8000
  B lowup input method:        Cursor    
  O rientation of plot:        Landscape 
  C olor PostScript output?     F

      Option, Value   (or <Return>)    c>  
 XFOIL   c>  
 Labeled airfoil file.  Name:  000271                                          

 Number of input coordinate points: 200
 Clockwise ordering
 Max thickness =     0.091998  at x =   0.158
 Max camber    =     0.115203  at x =   0.422

  LE  x,y  =  -0.00002   0.00074  |   Chord =   0.99989
  TE  x,y  =   0.99988   0.00003  |

 Current airfoil nodes set from buffer airfoil nodes ( 200 )

 XFOIL   c>  
 You are working with the buffer airfoil

.GDES   c>  
  i       x        y      angle
   2   0.9990   0.0003   -0.015
   3   0.9978   0.0006   -0.038
   4   0.9961   0.0011   -0.089
   5   0.9938   0.0017   -0.087
   6   0.9911   0.0024   -0.082
   7   0.9880   0.0033   -0.113
   8   0.9843   0.0043   -0.129
   9   0.9801   0.0055   -0.118
  10   0.9755   0.0068   -0.153
  11   0.9704   0.0083   -0.150
  12   0.9649   0.0099   -0.149
  13   0.9589   0.0116   -0.176
  14   0.9524   0.0136   -0.155
  15   0.9455   0.0156   -0.177
  16   0.9382   0.0179   -0.157
  17   0.9304   0.0202   -0.174
  18   0.9222   0.0228   -0.153
  19   0.9135   0.0255   -0.149
  20   0.9045   0.0283   -0.154
  21   0.8951   0.0313   -0.126
  22   0.8853   0.0344   -0.119
  23   0.8751   0.0377   -0.100
  24   0.8645   0.0411   -0.084
  25   0.8536   0.0447   -0.072
  26   0.8423   0.0484   -0.040
  27   0.8307   0.0522   -0.018
  28   0.8187   0.0561    0.009
  29   0.8065   0.0601    0.035
  30   0.7939   0.0643    0.068
  31   0.7810   0.0684    0.097
  32   0.7679   0.0727    0.137
  33   0.7545   0.0770    0.168
  34   0.7409   0.0814    0.205
  35   0.7270   0.0857    0.248
  36   0.7129   0.0901    0.290
  37   0.6986   0.0944    0.328
  38   0.6841   0.0988    0.373
  39   0.6694   0.1030    0.420
  40   0.6545   0.1072    0.466
  41   0.6395   0.1114    0.508
  42   0.6243   0.1154    0.563
  43   0.6091   0.1192    0.605
  44   0.5937   0.1230    0.654
  45   0.5782   0.1266    0.704
  46   0.5627   0.1299    0.751
  47   0.5471   0.1331    0.797
  48   0.5314   0.1361    0.848
  49   0.5157   0.1388    0.890
  50   0.5000   0.1413    0.935
  51   0.4843   0.1436    0.979
  52   0.4686   0.1455    1.015
  53   0.4529   0.1472    1.055
  54   0.4373   0.1486    1.093
  55   0.4218   0.1496    1.121
  56   0.4063   0.1504    1.151
  57   0.3909   0.1508    1.181
  58   0.3757   0.1510    1.195
  59   0.3605   0.1508    1.220
  60   0.3455   0.1503    1.228
  61   0.3306   0.1494    1.240
  62   0.3159   0.1483    1.249
  63   0.3014   0.1469    1.247
  64   0.2871   0.1451    1.252
  65   0.2730   0.1431    1.237
  66   0.2591   0.1408    1.239
  67   0.2455   0.1383    1.228
  68   0.2321   0.1355    1.216
  69   0.2190   0.1324    1.198
  70   0.2061   0.1291    1.184
  71   0.1935   0.1257    1.178
  72   0.1813   0.1220    1.155
  73   0.1693   0.1182    1.144
  74   0.1577   0.1142    1.130
  75   0.1464   0.1101    1.130
  76   0.1355   0.1058    1.118
  77   0.1249   0.1015    1.122
  78   0.1147   0.0971    1.123
  79   0.1049   0.0926    1.153
  80   0.0955   0.0881    1.160
  81   0.0865   0.0835    1.201
  82   0.0778   0.0789    1.248
  83   0.0696   0.0743    1.318
  84   0.0618   0.0697    1.392
  85   0.0545   0.0651    1.492
  86   0.0476   0.0605    1.636
  87   0.0411   0.0559    1.784
  88   0.0351   0.0514    1.971
  89   0.0296   0.0469    2.222
  90   0.0245   0.0425    2.487
  91   0.0199   0.0381    2.826
  92   0.0157   0.0337    3.240
  93   0.0120   0.0294    3.667
  94   0.0089   0.0251    4.205
  95   0.0062   0.0209    4.756
  96   0.0039   0.0167    5.329
  97   0.0022   0.0125    5.908
  98   0.0010   0.0083    6.363
  99   0.0002   0.0042    6.684
 100   0.0000   0.0000   11.171
 101   0.0002  -0.0018   14.853
 102   0.0010  -0.0036   13.231
 103   0.0022  -0.0053   11.303
 104   0.0039  -0.0069    9.431
 105   0.0062  -0.0084    7.860
 106   0.0089  -0.0096    6.652
 107   0.0120  -0.0107    5.627
 108   0.0157  -0.0116    4.850
 109   0.0199  -0.0122    4.191
 110   0.0245  -0.0126    3.627
 111   0.0296  -0.0126    3.197
 112   0.0351  -0.0124    2.772
 113   0.0411  -0.0118    2.446
 114   0.0476  -0.0109    2.125
 115   0.0545  -0.0097    1.850
 116   0.0618  -0.0082    1.612
 117   0.0696  -0.0063    1.365
 118   0.0778  -0.0041    1.169
 119   0.0865  -0.0017    0.966
 120   0.0955   0.0011    0.798
 121   0.1049   0.0041    0.619
 122   0.1147   0.0073    0.471
 123   0.1249   0.0108    0.314
 124   0.1355   0.0144    0.176
 125   0.1464   0.0183    0.051
 126   0.1577   0.0222   -0.087
 127   0.1693   0.0263   -0.196
 128   0.1813   0.0304   -0.307
 129   0.1935   0.0346   -0.426
 130   0.2061   0.0387   -0.516
 131   0.2190   0.0428   -0.616
 132   0.2321   0.0469   -0.699
 133   0.2455   0.0509   -0.789
 134   0.2591   0.0547   -0.860
 135   0.2730   0.0584   -0.926
 136   0.2871   0.0618   -0.989
 137   0.3014   0.0651   -1.047
 138   0.3159   0.0682   -1.087
 139   0.3306   0.0710   -1.128
 140   0.3455   0.0735   -1.156
 141   0.3605   0.0757   -1.179
 142   0.3757   0.0777   -1.186
 143   0.3909   0.0793   -1.194
 144   0.4063   0.0807   -1.186
 145   0.4218   0.0817   -1.179
 146   0.4373   0.0824   -1.158
 147   0.4529   0.0828   -1.127
 148   0.4686   0.0828   -1.100
 149   0.4843   0.0826   -1.060
 150   0.5000   0.0821   -1.012
 151   0.5157   0.0813   -0.967
 152   0.5314   0.0802   -0.917
 153   0.5471   0.0789   -0.858
 154   0.5627   0.0774   -0.806
 155   0.5782   0.0756   -0.747
 156   0.5937   0.0737   -0.684
 157   0.6091   0.0716   -0.632
 158   0.6243   0.0693   -0.562
 159   0.6395   0.0669   -0.510
 160   0.6545   0.0643   -0.451
 161   0.6694   0.0617   -0.392
 162   0.6841   0.0590   -0.333
 163   0.6986   0.0563   -0.286
 164   0.7129   0.0535   -0.235
 165   0.7270   0.0507   -0.176
 166   0.7409   0.0479   -0.138
 167   0.7545   0.0451   -0.097
 168   0.7679   0.0423   -0.043
 169   0.7810   0.0396   -0.016
 170   0.7939   0.0369    0.025
 171   0.8065   0.0343    0.050
 172   0.8187   0.0318    0.093
 173   0.8307   0.0293    0.110
 174   0.8423   0.0270    0.133
 175   0.8536   0.0247    0.158
 176   0.8645   0.0225    0.173
 177   0.8751   0.0205    0.194
 178   0.8853   0.0185    0.194
 179   0.8951   0.0167    0.216
 180   0.9045   0.0150    0.215
 181   0.9135   0.0134    0.218
 182   0.9222   0.0118    0.229
 183   0.9304   0.0104    0.223
 184   0.9382   0.0091    0.217
 185   0.9455   0.0079    0.220
 186   0.9524   0.0068    0.203
 187   0.9589   0.0058    0.200
 188   0.9649   0.0049    0.202
 189   0.9704   0.0041    0.176
 190   0.9755   0.0033    0.166
 191   0.9801   0.0027    0.154
 192   0.9843   0.0021    0.153
 193   0.9880   0.0016    0.108
 194   0.9911   0.0012    0.109
 195   0.9938   0.0008    0.104
 196   0.9961   0.0005    0.056
 197   0.9978   0.0003    0.082
 198   0.9990   0.0001    0.038
 199   0.9998   0.0000   -0.066

 Maximum panel corner angle = 14.853   at  i,x,y  = 101   0.0002  -0.0018

 Enter corner angle criterion for refinement (deg):   7.427
 Enter type of spline parameter (1=uniform, 2=arclength):   1
 Enter refinement x limits:  -0.10000   1.10000
 Number of points added:           12
 Max thickness =     0.091973  at x =   0.158
 Max camber    =     0.115658  at x =   0.422

 Maximum panel corner angle =  7.655   at  i,x,y  = 103   0.0001  -0.0013

.GDES   c>  
 Buffer airfoil is not identical to current airfoil

 XFOIL   c>  
 Blunt trailing edge.  Gap =  0.00026

 Paneling parameters used...
   Number of panel nodes       160
   Panel bunching parameter    1.000
   TE/LE panel density ratio   0.150
   Refined-area/LE panel density ratio    0.200
   Top    side refined area x/c limits  1.000 1.000
   Bottom side refined area x/c limits  1.000 1.000

 XFOIL   c>  
.OPERi   c>   Current iteration limit:          20

Enter new iteration limit   i>  
Enter new iteration limit   i>  
Enter new iteration limit   i>  
.OPERi   c>  
 M  =    0.0000
 Re =  0.3000E+06

.OPERv   c>  
 Sonic Cp =    -66.86      Sonic Q/Qinf =     9.138


.OPERv   c>  
 Polar  1 newly created for accumulation
 Airfoil archived with polar: 000271                                          

Enter  polar save filename  OR  <return> for no file   s>  
 New polar save file available

Enter  polar dump filename  OR  <return> for no file   s>  
 Polar dump file will NOT be written

 Polar accumulation enabled

.OPERva   c>   Calculating unit vorticity distributions ...
 Calculating wake trajectory ...
 Calculating source influence matrix ...

 Solving BL system ...

 Initializing BL ...
    side            1  ...
 MRCHUE: Inverse mode at  50     Hk =   4.127
 MRCHUE: Inverse mode at  51     Hk =   4.842
 MRCHUE: Inverse mode at  52     Hk =   5.541
 MRCHUE: Inverse mode at  53     Hk =   6.230
 MRCHUE: Inverse mode at  54     Hk =   6.911
 MRCHUE: Inverse mode at  55     Hk =   7.586
 MRCHUE: Inverse mode at  56     Hk =   8.258
 MRCHUE: Inverse mode at  57     Hk =   8.927
 MRCHUE: Inverse mode at  58     Hk =   8.990
 MRCHUE: Inverse mode at  59     Hk =   5.955
 MRCHUE: Inverse mode at  60     Hk =   4.316
 MRCHUE: Inverse mode at  61     Hk =   3.168
 MRCHUE: Convergence failed at  83  side 1    Res =  0.2362E+01
    side            2  ...
 MRCHUE: Inverse mode at  22     Hk =   4.602
 MRCHUE: Inverse mode at  23     Hk =   5.436
 MRCHUE: Inverse mode at  24     Hk =   6.312
 MRCHUE: Inverse mode at  25     Hk =   7.231
 MRCHUE: Inverse mode at  26     Hk =   8.189
 MRCHUE: Inverse mode at  27     Hk =   9.171
 MRCHUE: Inverse mode at  28     Hk =   9.408
 MRCHUE: Inverse mode at  29     Hk =   5.035
 MRCHUE: Inverse mode at  30     Hk =   3.186
 MRCHUE: Inverse mode at  31     Hk =   2.500
 MRCHUE: Inverse mode at  32     Hk =   2.500
 MRCHUE: Inverse mode at  33     Hk =   2.500
 MRCHUE: Convergence failed at  79  side 2    Res =  0.2318E+01

 MRCHDU: Convergence failed at  83  side 1    Res =  0.2499E+01
 Side 1  free  transition at x/c =  0.5836   58
 Side 2  free  transition at x/c =  0.1581   28

   1   rms: 0.1388E+01   max: 0.8774E+01   T at   28  2   RLX: 0.092
       a =  2.000      CL =  1.3162
      Cm = -0.2238     CD =  0.00890   =>   CDf =  0.00730    CDp =  0.00160

 Side 1  free  transition at x/c =  0.5844   58
 Side 2  free  transition at x/c =  0.1456   28

   2   rms: 0.4027E+00   max: -.1321E+01   D at   39  2   RLX: 0.378
       a =  2.000      CL =  1.2883
      Cm = -0.2168     CD =  0.01149   =>   CDf =  0.00701    CDp =  0.00448

 Side 1  free  transition at x/c =  0.5892   59
 Side 2  free  transition at x/c =  0.1467   28

   3   rms: 0.2561E+00   max: -.1016E+01   D at   38  2   RLX: 0.492
       a =  2.000      CL =  1.2690
      Cm = -0.2129     CD =  0.01268   =>   CDf =  0.00726    CDp =  0.00542

 Side 1  free  transition at x/c =  0.5889   59
 Side 2  free  transition at x/c =  0.1451   28

   4   rms: 0.1146E+00   max: -.5392E+00   D at   35  2   RLX: 0.927
       a =  2.000      CL =  1.2524
      Cm = -0.2085     CD =  0.01549   =>   CDf =  0.00743    CDp =  0.00807

 Side 1  free  transition at x/c =  0.5879   59
 Side 2  free  transition at x/c =  0.1418   27

   5   rms: 0.3453E-01   max: 0.3428E+00   T at   27  2
       a =  2.000      CL =  1.2508
      Cm = -0.2080     CD =  0.01632   =>   CDf =  0.00750    CDp =  0.00882

 Side 1  free  transition at x/c =  0.5874   59
 Side 2  free  transition at x/c =  0.1374   27

   6   rms: 0.1120E-01   max: 0.5713E-01   D at   28  2
       a =  2.000      CL =  1.2508
      Cm = -0.2080     CD =  0.01634   =>   CDf =  0.00750    CDp =  0.00884

 Side 1  free  transition at x/c =  0.5874   59
 Side 2  free  transition at x/c =  0.1369   27

   7   rms: 0.1866E-03   max: 0.1700E-02   D at   29  2
       a =  2.000      CL =  1.2508
      Cm = -0.2080     CD =  0.01634   =>   CDf =  0.00748    CDp =  0.00886

 Side 1  free  transition at x/c =  0.5874   59
 Side 2  free  transition at x/c =  0.1369   27

   8   rms: 0.1272E-05   max: 0.7415E-05   D at   44  2
       a =  2.000      CL =  1.2508
      Cm = -0.2080     CD =  0.01634   =>   CDf =  0.00748    CDp =  0.00886

 Point added to stored polar  1
 Point written to save file  000271M0.1.log                                  
 Dump file unspecified or not available
 Calculating wake trajectory ...
 Calculating source influence matrix ...

 Solving BL system ...

 Side 1  free  transition at x/c =  0.5874   59
 Side 2  free  transition at x/c =  0.1369   27

   1   rms: 0.1871E+00   max: -.1368E+01   T at   27  2   RLX: 0.366
       a =  3.000      CL =  1.2927
      Cm = -0.2082     CD =  0.01638   =>   CDf =  0.00749    CDp =  0.00890

 Side 1  free  transition at x/c =  0.5843   58
 Side 2  free  transition at x/c =  0.1470   28

   2   rms: 0.1100E+00   max: -.6981E+00   T at   28  2   RLX: 0.716
       a =  3.000      CL =  1.3384
      Cm = -0.2079     CD =  0.01652   =>   CDf =  0.00744    CDp =  0.00908

 Side 1  free  transition at x/c =  0.5762   59
 Side 2  free  transition at x/c =  0.1563   27

   3   rms: 0.9137E-01   max: -.4466E+00   T at   27  2
       a =  3.000      CL =  1.3608
      Cm = -0.2080     CD =  0.01657   =>   CDf =  0.00742    CDp =  0.00915

 Side 1  free  transition at x/c =  0.5746   59
 Side 2  free  transition at x/c =  0.1647   28

   4   rms: 0.7123E-01   max: 0.6575E+00   D at   28  2
       a =  3.000      CL =  1.3606
      Cm = -0.2081     CD =  0.01644   =>   CDf =  0.00758    CDp =  0.00886

 Side 1  free  transition at x/c =  0.5747   59
 Side 2  free  transition at x/c =  0.1625   28

   5   rms: 0.4541E-02   max: 0.3158E-01   T at   28  2
       a =  3.000      CL =  1.3605
      Cm = -0.2081     CD =  0.01646   =>   CDf =  0.00755    CDp =  0.00892

 Side 1  free  transition at x/c =  0.5747   59
 Side 2  free  transition at x/c =  0.1621   28

   6   rms: 0.1691E-03   max: -.1034E-02   D at   28  2
       a =  3.000      CL =  1.3605
      Cm = -0.2081     CD =  0.01646   =>   CDf =  0.00755    CDp =  0.00892

 Side 1  free  transition at x/c =  0.5747   59
 Side 2  free  transition at x/c =  0.1621   28

   7   rms: 0.9298E-06   max: 0.5391E-05   D at   28  2
       a =  3.000      CL =  1.3605
      Cm = -0.2081     CD =  0.01646   =>   CDf =  0.00755    CDp =  0.00892

 Point added to stored polar  1
 Point written to save file  000271M0.1.log                                  
 Dump file unspecified or not available
 Calculating wake trajectory ...
 Calculating source influence matrix ...

 Solving BL system ...

 Side 1  free  transition at x/c =  0.5747   59
 Side 2  free  transition at x/c =  0.1621   28

   1   rms: 0.1838E+00   max: -.1512E+01   T at   28  2   RLX: 0.331
       a =  4.000      CL =  1.3967
      Cm = -0.2081     CD =  0.01647   =>   CDf =  0.00756    CDp =  0.00891

 Side 1  free  transition at x/c =  0.5708   59
 Side 2  free  transition at x/c =  0.1704   28

   2   rms: 0.1538E+00   max: -.1168E+01   T at   28  2   RLX: 0.428
       a =  4.000      CL =  1.4295
      Cm = -0.2082     CD =  0.01696   =>   CDf =  0.00731    CDp =  0.00964

 Side 1  free  transition at x/c =  0.5684   59
 Side 2  free  transition at x/c =  0.1801   28

   3   rms: 0.1221E+00   max: 0.1786E+01   D at    2  1   RLX: 0.587
       a =  4.000      CL =  1.4514
      Cm = -0.2079     CD =  0.01680   =>   CDf =  0.00764    CDp =  0.00916

 Side 1  free  transition at x/c =  0.5648   59
 Side 2  free  transition at x/c =  0.1851   28

   4   rms: 0.2760E-01   max: -.1859E+00   T at   28  2
       a =  4.000      CL =  1.4684
      Cm = -0.2079     CD =  0.01696   =>   CDf =  0.00751    CDp =  0.00945

 Side 1  free  transition at x/c =  0.5624   59
 Side 2  free  transition at x/c =  0.1896   28

   5   rms: 0.7977E-02   max: -.5556E-01   D at   29  2
       a =  4.000      CL =  1.4686
      Cm = -0.2079     CD =  0.01695   =>   CDf =  0.00750    CDp =  0.00945

 Side 1  free  transition at x/c =  0.5625   59
 Side 2  free  transition at x/c =  0.1899   28

   6   rms: 0.1695E-03   max: 0.1501E-02   D at   29  2
       a =  4.000      CL =  1.4686
      Cm = -0.2079     CD =  0.01695   =>   CDf =  0.00750    CDp =  0.00944

 Side 1  free  transition at x/c =  0.5625   59
 Side 2  free  transition at x/c =  0.1899   28

   7   rms: 0.8473E-06   max: 0.4119E-05   D at   61  1
       a =  4.000      CL =  1.4686
      Cm = -0.2079     CD =  0.01695   =>   CDf =  0.00750    CDp =  0.00944

 Point added to stored polar  1
 Point written to save file  000271M0.1.log                                  
 Dump file unspecified or not available
 Calculating wake trajectory ...
 Calculating source influence matrix ...

 Solving BL system ...

 Side 1  free  transition at x/c =  0.5625   59
 Side 2  free  transition at x/c =  0.1899   28

   1   rms: 0.1827E+00   max: -.1605E+01   T at   28  2   RLX: 0.311
       a =  5.000      CL =  1.5014
      Cm = -0.2077     CD =  0.01714   =>   CDf =  0.00751    CDp =  0.00962

 Side 1  free  transition at x/c =  0.5580   59
 Side 2  free  transition at x/c =  0.2023   29

   2   rms: 0.1271E+00   max: 0.9282E+00   D at   29  2   RLX: 0.863
       a =  5.000      CL =  1.5668
      Cm = -0.2078     CD =  0.01726   =>   CDf =  0.00726    CDp =  0.01000

 Side 1  free  transition at x/c =  0.5521   59
 Side 2  free  transition at x/c =  0.2198   29

   3   rms: 0.3581E-01   max: 0.3842E+00   D at   29  2
       a =  5.000      CL =  1.5772
      Cm = -0.2079     CD =  0.01747   =>   CDf =  0.00750    CDp =  0.00997

 Side 1  free  transition at x/c =  0.5507   59
 Side 2  free  transition at x/c =  0.2215   29

   4   rms: 0.8454E-03   max: -.8052E-02   T at   29  2
       a =  5.000      CL =  1.5774
      Cm = -0.2079     CD =  0.01747   =>   CDf =  0.00746    CDp =  0.01001

 Side 1  free  transition at x/c =  0.5508   59
 Side 2  free  transition at x/c =  0.2217   29

   5   rms: 0.9938E-05   max: -.9318E-04   D at   30  2
       a =  5.000      CL =  1.5774
      Cm = -0.2079     CD =  0.01746   =>   CDf =  0.00746    CDp =  0.01000

 Point added to stored polar  1
[...]

 Side 1  free  transition at x/c =  0.5389   60
 Side 2  free  transition at x/c =  0.2484   30

   4   rms: 0.2234E+00   max: -.1189E+01   D at   45  2   RLX: 0.420
       a =  6.000      CL =  1.6764
      Cm = -0.2077     CD =  0.01853   =>   CDf =  0.00706    CDp =  0.01147

 Side 1  free  transition at x/c =  0.5386   60
 Side 2  free  transition at x/c =  0.2575   31

   5   rms: 0.2506E+00   max: -.1639E+01   D at   45  2   RLX: 0.305
       a =  6.000      CL =  1.6784
      Cm = -0.2075     CD =  0.01830   =>   CDf =  0.00706    CDp =  0.01124

 Side 1  free  transition at x/c =  0.5384   60
 Side 2  free  transition at x/c =  0.2603   31

   6   rms: 0.1824E+00   max: -.1351E+01   D at   45  2   RLX: 0.370
       a =  6.000      CL =  1.6797
      Cm = -0.2075     CD =  0.01818   =>   CDf =  0.00713    CDp =  0.01105

 Side 1  free  transition at x/c =  0.5383   60
 Side 2  free  transition at x/c =  0.2626   31

   7   rms: 0.1343E+00   max: -.1057E+01   D at   46  2   RLX: 0.473
       a =  6.000      CL =  1.6809
      Cm = -0.2075     CD =  0.01808   =>   CDf =  0.00715    CDp =  0.01093

 Side 1  free  transition at x/c =  0.5382   60
 Side 2  free  transition at x/c =  0.2626   31

   8   rms: 0.7848E-01   max: -.6969E+00   D at   47  2   RLX: 0.717
       a =  6.000      CL =  1.6819
      Cm = -0.2075     CD =  0.01805   =>   CDf =  0.00718    CDp =  0.01087

 Side 1  free  transition at x/c =  0.5381   60
 Side 2  free  transition at x/c =  0.2605   31

   9   rms: 0.2774E-01   max: -.2674E+00   D at   47  2
       a =  6.000      CL =  1.6822
      Cm = -0.2075     CD =  0.01808   =>   CDf =  0.00723    CDp =  0.01085

 Side 1  free  transition at x/c =  0.5380   60
 Side 2  free  transition at x/c =  0.2589   31

  10   rms: 0.1377E-02   max: -.1643E-01   D at   47  2
       a =  6.000      CL =  1.6822
      Cm = -0.2075     CD =  0.01809   =>   CDf =  0.00726    CDp =  0.01084

 Side 1  free  transition at x/c =  0.5380   60
 Side 2  free  transition at x/c =  0.2588   31

  11   rms: 0.9661E-05   max: 0.8876E-04   T at   31  2
       a =  6.000      CL =  1.6822
      Cm = -0.2075     CD =  0.01809   =>   CDf =  0.00726    CDp =  0.01084

 Point added to stored polar  1
 Point written to save file  000271M0.1.log                                  
 Dump file unspecified or not available
 Calculating wake trajectory ...
 Calculating source influence matrix ...

 Solving BL system ...

 Side 1  free  transition at x/c =  0.5380   60
 Side 2  free  transition at x/c =  0.2588   31

   1   rms: 0.2102E+00   max: -.1978E+01   T at   31  2   RLX: 0.253
       a =  7.000      CL =  1.7100
      Cm = -0.2077     CD =  0.01821   =>   CDf =  0.00727    CDp =  0.01094

 Side 1  free  transition at x/c =  0.5355   59
 Side 2  free  transition at x/c =  0.2691   31

   2   rms: 0.1441E+00   max: -.1343E+01   T at   31  2   RLX: 0.372
       a =  7.000      CL =  1.7341
      Cm = -0.2069     CD =  0.01888   =>   CDf =  0.00700    CDp =  0.01187

 Side 1  free  transition at x/c =  0.5310   60
 Side 2  free  transition at x/c =  0.2852   31

   3   rms: 0.8131E-01   max: 0.5308E+00   D at   32  2
       a =  7.000      CL =  1.7798
      Cm = -0.2063     CD =  0.01916   =>   CDf =  0.00702    CDp =  0.01214

 Side 1  free  transition at x/c =  0.5244   60
 Side 2  free  transition at x/c =  0.3059   33

   4   rms: 0.1325E-01   max: -.1247E+00   D at   32  2
       a =  7.000      CL =  1.7823
      Cm = -0.2066     CD =  0.01906   =>   CDf =  0.00694    CDp =  0.01211

 Side 1  free  transition at x/c =  0.5249   60
 Side 2  free  transition at x/c =  0.3073   33

   5   rms: 0.2927E-02   max: 0.3486E-01   D at   33  2
       a =  7.000      CL =  1.7823
      Cm = -0.2066     CD =  0.01906   =>   CDf =  0.00690    CDp =  0.01216

 Side 1  free  transition at x/c =  0.5249   60
 Side 2  free  transition at x/c =  0.3068   33

   6   rms: 0.3156E-04   max: -.4994E-03   D at   35  2
       a =  7.000      CL =  1.7823
      Cm = -0.2066     CD =  0.01906   =>   CDf =  0.00690    CDp =  0.01216

 Point added to stored polar  1
 Point written to save file  000271M0.1.log                                  
 Dump file unspecified or not available
 Calculating wake trajectory ...
 Calculating source influence matrix ...

 Solving BL system ...

 Side 1  free  transition at x/c =  0.5249   60
 Side 2  free  transition at x/c =  0.3068   33

   1   rms: 0.2067E+00   max: -.1976E+01   T at   33  2   RLX: 0.253
       a =  8.000      CL =  1.8084
      Cm = -0.2065     CD =  0.01921   =>   CDf =  0.00662    CDp =  0.01259

 Side 1  free  transition at x/c =  0.5219   61
 Side 2  free  transition at x/c =  0.3190   32

   2   rms: 0.1735E+00   max: -.1878E+01   T at   32  2   RLX: 0.266
       a =  8.000      CL =  1.8311
      Cm = -0.2066     CD =  0.01967   =>   CDf =  0.00693    CDp =  0.01274

 MRCHDU: Convergence failed at  34  side 2    Res =  0.1842E+02
 MRCHDU: Convergence failed at  35  side 2    Res =  0.4485E+01
 MRCHDU: Convergence failed at  36  side 2    Res =  0.5839E+01
 MRCHDU: Convergence failed at  37  side 2    Res =  0.8474E+01
 MRCHDU: Convergence failed at  38  side 2    Res =  0.1169E+02
 MRCHDU: Convergence failed at  39  side 2    Res =  0.1166E+02
 MRCHDU: Convergence failed at  40  side 2    Res =  0.9503E+01
 MRCHDU: Convergence failed at  41  side 2    Res =  0.6919E+01
 MRCHDU: Convergence failed at  42  side 2    Res =  0.4362E+01
 Side 1  free  transition at x/c =  0.5198   61
 Side 2  free  transition at x/c =  0.3371   34

   3   rms: 0.1522E+00   max: -.8829E+00   D at   42  2   RLX: 0.566
       a =  8.000      CL =  1.8634
      Cm = -0.2064     CD =  0.01975   =>   CDf =  0.00663    CDp =  0.01312

 Side 1  free  transition at x/c =  0.5170   60
 Side 2  free  transition at x/c =  0.3700   36

   4   rms: 0.6722E-01   max: -.5717E+00   D at   37  2   RLX: 0.875
       a =  8.000      CL =  1.8750
      Cm = -0.2051     CD =  0.02019   =>   CDf =  0.00674    CDp =  0.01345

 Side 1  free  transition at x/c =  0.5123   60
 Side 2  free  transition at x/c =  0.3858   37

   5   rms: 0.2123E-01   max: -.2456E+00   C at   37  2
       a =  8.000      CL =  1.8807
      Cm = -0.2055     CD =  0.02012   =>   CDf =  0.00624    CDp =  0.01388

 Side 1  free  transition at x/c =  0.5121   61
 Side 2  free  transition at x/c =  0.3922   36

   6   rms: 0.2324E-02   max: -.3213E-01   D at   36  2
       a =  8.000      CL =  1.8807
      Cm = -0.2055     CD =  0.02013   =>   CDf =  0.00651    CDp =  0.01362

 Side 1  free  transition at x/c =  0.5121   61
 Side 2  free  transition at x/c =  0.3917   36

   7   rms: 0.9305E-03   max: -.1136E-01   D at    4  1
       a =  8.000      CL =  1.8807
      Cm = -0.2055     CD =  0.02013   =>   CDf =  0.00651    CDp =  0.01362

 Side 1  free  transition at x/c =  0.5121   61
 Side 2  free  transition at x/c =  0.3918   36

   8   rms: 0.2478E-05   max: 0.2150E-04   D at    4  1
       a =  8.000      CL =  1.8807
      Cm = -0.2055     CD =  0.02013   =>   CDf =  0.00651    CDp =  0.01362

 Point added to stored polar  1
 Point written to save file  000271M0.1.log                                  
 Dump file unspecified or not available
 Calculating wake trajectory ...
 Calculating source influence matrix ...

 Solving BL system ...

 Side 1  free  transition at x/c =  0.5121   61
 Side 2  free  transition at x/c =  0.3918   36

   1   rms: 0.2547E+00   max: -.3046E+01   C at   36  2   RLX: 0.164
       a =  9.000      CL =  1.8961
      Cm = -0.2053     CD =  0.02030   =>   CDf =  0.00652    CDp =  0.01378

 Side 1  free  transition at x/c =  0.5097   61
 Side 2  free  transition at x/c =  0.4163   38

   2   rms: 0.3611E+00   max: -.4770E+01   C at   38  2   RLX: 0.105
       a =  9.000      CL =  1.9054
      Cm = -0.2053     CD =  0.02040   =>   CDf =  0.00647    CDp =  0.01393

 Side 1  free  transition at x/c =  0.5085   61
 Side 2  free  transition at x/c =  0.4324   39

   3   rms: 0.4553E+00   max: -.6679E+01   C at   39  2   RLX: 0.075
       a =  9.000      CL =  1.9118
      Cm = -0.2054     CD =  0.02046   =>   CDf =  0.00645    CDp =  0.01401

 Side 1  free  transition at x/c =  0.5078   61
 Side 2  free  transition at x/c =  0.4463   39

   4   rms: 0.2152E+00   max: -.2262E+01   T at   39  2   RLX: 0.221
       a =  9.000      CL =  1.9283
      Cm = -0.2055     CD =  0.02059   =>   CDf =  0.00644    CDp =  0.01415

 Side 1  free  transition at x/c =  0.5060   61
 Side 2 forced transition at x/c =  1.0001   72

   5   rms: 0.1416E+00   max: -.5793E+00   D at   38  2   RLX: 0.863
       a =  9.000      CL =  1.9774
      Cm = -0.2051     CD =  0.02046   =>   CDf =  0.00566    CDp =  0.01480

 Side 1  free  transition at x/c =  0.4955   61
 Side 2 forced transition at x/c =  1.0001   71

   6   rms: 0.3225E-01   max: -.2523E+00   D at   61  1
       a =  9.000      CL =  1.9715
      Cm = -0.2030     CD =  0.02064   =>   CDf =  0.00591    CDp =  0.01473

 Side 1  free  transition at x/c =  0.4955   61
 Side 2 forced transition at x/c =  1.0001   71

   7   rms: 0.4750E-02   max: 0.2593E-01   D at   30  2
       a =  9.000      CL =  1.9716
      Cm = -0.2030     CD =  0.02068   =>   CDf =  0.00583    CDp =  0.01484

 Side 1  free  transition at x/c =  0.4953   61
 Side 2 forced transition at x/c =  1.0001   71

   8   rms: 0.2184E-03   max: 0.1313E-02   D at   30  2
       a =  9.000      CL =  1.9715
      Cm = -0.2030     CD =  0.02068   =>   CDf =  0.00583    CDp =  0.01484

 Side 1  free  transition at x/c =  0.4953   61
 Side 2 forced transition at x/c =  1.0001   71

   9   rms: 0.1082E-05   max: -.7725E-05   C at   71  2
       a =  9.000      CL =  1.9715
      Cm = -0.2030     CD =  0.02068   =>   CDf =  0.00583    CDp =  0.01484

 Point added to stored polar  1
 Point written to save file  000271M0.1.log                                  
 Dump file unspecified or not available
 Calculating wake trajectory ...
 Calculating source influence matrix ...

 Solving BL system ...

 Side 1  free  transition at x/c =  0.4953   61
 Side 2 forced transition at x/c =  1.0001   71

   1   rms: 0.1645E+00   max: 0.6836E+00   T at   61  1
       a = 10.000      CL =  2.0502
      Cm = -0.1983     CD =  0.02105   =>   CDf =  0.00552    CDp =  0.01553

 Side 1  free  transition at x/c =  0.4694   60
 Side 2 forced transition at x/c =  1.0001   70

   2   rms: 0.7160E-01   max: -.4765E+00   D at   61  1
       a = 10.000      CL =  2.0649
      Cm = -0.2005     CD =  0.02068   =>   CDf =  0.00563    CDp =  0.01506

 Side 1  free  transition at x/c =  0.4716   61
 Side 2 forced transition at x/c =  1.0001   70

   3   rms: 0.1951E-01   max: -.9727E-01   D at   63  1
       a = 10.000      CL =  2.0535
      Cm = -0.1989     CD =  0.02139   =>   CDf =  0.00572    CDp =  0.01567

 Side 1  free  transition at x/c =  0.4703   60
 Side 2 forced transition at x/c =  1.0001   70

   4   rms: 0.1841E-02   max: 0.9455E-02   D at   61  1
       a = 10.000      CL =  2.0520
      Cm = -0.1987     CD =  0.02147   =>   CDf =  0.00578    CDp =  0.01568

 Side 1  free  transition at x/c =  0.4702   60
 Side 2 forced transition at x/c =  1.0001   70

   5   rms: 0.3976E-04   max: 0.1847E-03   D at   77  2
       a = 10.000      CL =  2.0520
      Cm = -0.1987     CD =  0.02146   =>   CDf =  0.00578    CDp =  0.01569

 Point added to stored polar  1
 Point written to save file  000271M0.1.log                                  
 Dump file unspecified or not available
 Calculating wake trajectory ...
 Calculating source influence matrix ...

 Solving BL system ...

 Side 1  free  transition at x/c =  0.4702   60
 Side 2 forced transition at x/c =  1.0001   70

   1   rms: 0.1574E+00   max: -.7738E+00   C at   60  1   RLX: 0.646
       a = 11.000      CL =  2.0532
      Cm = -0.1890     CD =  0.02371   =>   CDf =  0.00579    CDp =  0.01792

 Side 1  free  transition at x/c =  0.4475   59
 Side 2 forced transition at x/c =  1.0001   70

   2   rms: 0.5704E-01   max: -.3852E+00   D at   60  1
       a = 11.000      CL =  2.0570
      Cm = -0.1841     CD =  0.02471   =>   CDf =  0.00533    CDp =  0.01938

 Side 1  free  transition at x/c =  0.4448   60
 Side 2 forced transition at x/c =  1.0001   69

   3   rms: 0.2509E-01   max: -.9922E-01   D at   88  1
       a = 11.000      CL =  2.0768
      Cm = -0.1873     CD =  0.02437   =>   CDf =  0.00534    CDp =  0.01903

 Side 1  free  transition at x/c =  0.4423   60
 Side 2 forced transition at x/c =  1.0001   69

   4   rms: 0.1770E-02   max: -.9711E-02   D at   79  2
       a = 11.000      CL =  2.0774
      Cm = -0.1874     CD =  0.02440   =>   CDf =  0.00539    CDp =  0.01901

 Side 1  free  transition at x/c =  0.4423   60
 Side 2 forced transition at x/c =  1.0001   69

   5   rms: 0.7276E-04   max: -.2697E-03   D at   75  2
       a = 11.000      CL =  2.0775
      Cm = -0.1874     CD =  0.02440   =>   CDf =  0.00539    CDp =  0.01901

 Point added to stored polar  1
 Point written to save file  000271M0.1.log                                  
 Dump file unspecified or not available
 Calculating wake trajectory ...
 Calculating source influence matrix ...

 Solving BL system ...

 Side 1  free  transition at x/c =  0.4423   60
 Side 2 forced transition at x/c =  1.0001   69

   1   rms: 0.1389E+00   max: -.4941E+00   D at   61  1
       a = 12.000      CL =  2.1266
      Cm = -0.1804     CD =  0.02729   =>   CDf =  0.00503    CDp =  0.02226

 Side 1  free  transition at x/c =  0.4100   59
 Side 2 forced transition at x/c =  1.0001   68

   2   rms: 0.6391E-01   max: 0.5351E+00   D at   60  1
       a = 12.000      CL =  2.0897
      Cm = -0.1778     CD =  0.03040   =>   CDf =  0.00522    CDp =  0.02518

 Side 1  free  transition at x/c =  0.4146   59
 Side 2 forced transition at x/c =  1.0001   68

   3   rms: 0.7740E-02   max: -.4093E-01   D at   85  1
       a = 12.000      CL =  2.0963
      Cm = -0.1785     CD =  0.02976   =>   CDf =  0.00502    CDp =  0.02474

 Side 1  free  transition at x/c =  0.4130   59
 Side 2 forced transition at x/c =  1.0001   68

   4   rms: 0.1719E-03   max: -.1950E-02   D at   59  1
       a = 12.000      CL =  2.0963
      Cm = -0.1785     CD =  0.02976   =>   CDf =  0.00504    CDp =  0.02472

 Side 1  free  transition at x/c =  0.4130   59
 Side 2 forced transition at x/c =  1.0001   68

   5   rms: 0.1197E-04   max: -.4418E-04   D at   80  1
       a = 12.000      CL =  2.0963
      Cm = -0.1785     CD =  0.02976   =>   CDf =  0.00504    CDp =  0.02472

 Point added to stored polar  1
 Point written to save file  000271M0.1.log                                  
 Dump file unspecified or not available
 Calculating wake trajectory ...
 Calculating source influence matrix ...

 Solving BL system ...

 Side 1  free  transition at x/c =  0.4130   59
 Side 2 forced transition at x/c =  1.0001   68

   1   rms: 0.1456E+00   max: 0.4830E+00   D at   80  1
       a = 13.000      CL =  2.1071
      Cm = -0.1704     CD =  0.03685   =>   CDf =  0.00505    CDp =  0.03180

 Side 1  free  transition at x/c =  0.3578   55
 Side 2 forced transition at x/c =  1.0001   68

   2   rms: 0.5205E-01   max: 0.3298E+00   D at   80  1
       a = 13.000      CL =  2.0794
      Cm = -0.1688     CD =  0.03961   =>   CDf =  0.00512    CDp =  0.03449

 Side 1  free  transition at x/c =  0.3766   57
 Side 2 forced transition at x/c =  1.0001   68

   3   rms: 0.1583E-01   max: 0.2149E+00   C at   57  1
       a = 13.000      CL =  2.0830
      Cm = -0.1693     CD =  0.03912   =>   CDf =  0.00472    CDp =  0.03440

 Side 1  free  transition at x/c =  0.3718   56
 Side 2 forced transition at x/c =  1.0001   68

   4   rms: 0.2472E-02   max: -.2841E-01   D at   58  1
       a = 13.000      CL =  2.0831
      Cm = -0.1694     CD =  0.03922   =>   CDf =  0.00480    CDp =  0.03441

 Side 1  free  transition at x/c =  0.3706   56
 Side 2 forced transitGot result {'DD': 0.01622, 'Dmin': 0.01634, 'LL': -1.2446}
Completed successfully in 2.06 seconds. [{'DD': 0.01622, 'Dmin': 0.01634, 'LL': -1.2446}]
ion at x/c =  1.0001   68

   5   rms: 0.1414E-03   max: -.9195E-03   C at   56  1
       a = 13.000      CL =  2.0832
      Cm = -0.1694     CD =  0.03921   =>   CDf =  0.00480    CDp =  0.03441

 Side 1  free  transition at x/c =  0.3706   56
 Side 2 forced transition at x/c =  1.0001   68

   6   rms: 0.8534E-05   max: -.5804E-04   D at   79  2
       a = 13.000      CL =  2.0832
      Cm = -0.1694     CD =  0.03921   =>   CDf =  0.00480    CDp =  0.03441

 Point added to stored polar  1
 Point written to save file  000271M0.1.log                                  
 Dump file unspecified or not available
 Calculating wake trajectory ...
 Calculating source influence matrix ...

 Solving BL system ...

 Side 1  free  transition at x/c =  0.3706   56
 Side 2 forced transition at x/c =  1.0001   68

   1   rms: 0.1728E+00   max: 0.7667E+00   D at   75  1   RLX: 0.745
       a = 14.000      CL =  2.0569
      Cm = -0.1638     CD =  0.04992   =>   CDf =  0.00441    CDp =  0.04550

 Side 1  free  transition at x/c =  0.3090   53
 Side 2 forced transition at x/c =  1.0001   67

   2   rms: 0.6502E-01   max: 0.5333E+00   D at   76  1
       a = 14.000      CL =  2.0299
      Cm = -0.1612     CD =  0.05575   =>   CDf =  0.00503    CDp =  0.05073

 Side 1  free  transition at x/c =  0.2972   53
 Side 2 forced transition at x/c =  1.0001   67

   3   rms: 0.1181E-01   max: 0.1079E+00   D at   74  1
       a = 14.000      CL =  2.0253
      Cm = -0.1607     CD =  0.05551   =>   CDf =  0.00490    CDp =  0.05060

 Side 1  free  transition at x/c =  0.3006   53
 Side 2 forced transition at x/c =  1.0001   67

   4   rms: 0.1113E-02   max: -.1441E-01   C at   53  1
       a = 14.000      CL =  2.0247
      Cm = -0.1607     CD =  0.05547   =>   CDf =  0.00483    CDp =  0.05063

 Side 1  free  transition at x/c =  0.3011   53
 Side 2 forced transition at x/c =  1.0001   67

   5   rms: 0.3110E-04   max: -.3907E-03   C at   53  1
       a = 14.000      CL =  2.0247
      Cm = -0.1607     CD =  0.05546   =>   CDf =  0.00483    CDp =  0.05064

 Point added to stored polar  1
 Point written to save file  000271M0.1.log                                  
 Dump file unspecified or not available
 Calculating wake trajectory ...
 Calculating source influence matrix ...

 Solving BL system ...

 Side 1  free  transition at x/c =  0.3012   53
 Side 2 forced transition at x/c =  1.0001   67

   1   rms: 0.2145E+00   max: 0.2041E+01   C at   53  1   RLX: 0.562
       a = 15.000      CL =  1.9778
      Cm = -0.1571     CD =  0.06883   =>   CDf =  0.00484    CDp =  0.06399

 Side 1  free  transition at x/c =  0.2409   49
 Side 2 forced transition at x/c =  1.0001   67

   2   rms: 0.1061E+00   max: 0.8482E+00   C at   49  1
       a = 15.000      CL =  1.9289
      Cm = -0.1545     CD =  0.08089   =>   CDf =  0.00517    CDp =  0.07572

 Side 1  free  transition at x/c =  0.1992   46
 Side 2 forced transition at x/c =  1.0001   67

   3   rms: 0.2602E-01   max: -.3742E+00   C at   46  1
       a = 15.000      CL =  1.9221
      Cm = -0.1542     CD =  0.08021   =>   CDf =  0.00534    CDp =  0.07487

 Side 1  free  transition at x/c =  0.2101   47
 Side 2 forced transition at x/c =  1.0001   67

   4   rms: 0.2493E-02   max: 0.3839E-01   C at   47  1
       a = 15.000      CL =  1.9224
      Cm = -0.1541     CD =  0.07974   =>   CDf =  0.00515    CDp =  0.07459

 Side 1  free  transition at x/c =  0.2094   47
 Side 2 forced transition at x/c =  1.0001   67

   5   rms: 0.4565E-04   max: -.5565E-03   C at   47  1
       a = 15.000      CL =  1.9224
      Cm = -0.1541     CD =  0.07975   =>   CDf =  0.00517    CDp =  0.07457

 Point added to stored polar  1
 Point written to save file  000271M0.1.log                                  
 Dump file unspecified or not available

.OPERva   c>  
 XFOIL   c>  
