Job launching after 0.33 seconds in submission.
Running python job.
Changed into dir /home/simonx/Documents/Udacity/Projects/capstone/PESM_NSGA2_CST_XFoil
Importing evaluationFunctionXFoil.py
Running evaluationFunctionXFoil.main()
0
1
2
0.04
resp: 
 ===================================================
  XFOIL Version 6.97
  Copyright (C) 2000   Mark Drela, Harold Youngren

  This software comes with ABSOLUTELY NO WARRANTY,
    subject to the GNU General Public License.

  Caveat computor
 ===================================================

 File  xfoil.def  not found

   QUIT    Exit program

  .OPER    Direct operating point(s)
  .MDES    Complex mapping design routine
  .QDES    Surface speed design routine
  .GDES    Geometry design routine

   SAVE f  Write airfoil to labeled coordinate file
   PSAV f  Write airfoil to plain coordinate file
   ISAV f  Write airfoil to ISES coordinate file
   MSAV f  Write airfoil to MSES coordinate file
   REVE    Reverse written-airfoil node ordering
   DELI i  Change written-airfoil file delimiters

   LOAD f  Read buffer airfoil from coordinate file
   NACA i  Set NACA 4,5-digit airfoil and buffer airfoil
   INTE    Set buffer airfoil by interpolating two airfoils
   NORM    Buffer airfoil normalization toggle
   HALF    Halve the number of points in buffer airfoil
   XYCM rr Change CM reference location, currently  0.25000 0.00000

   BEND    Display structural properties of current airfoil

   PCOP    Set current-airfoil panel nodes directly from buffer airfoil points
   PANE    Set current-airfoil panel nodes ( 160 ) based on curvature
  .PPAR    Show/change paneling

  .PLOP    Plotting options

   WDEF f  Write  current-settings file
   RDEF f  Reread current-settings file
   NAME s  Specify new airfoil name
   NINC    Increment name version number

   Z       Zoom    | (available in all menus)
   U       Unzoom  | 

 XFOIL   c>   ...............................................

  G raphics-enable flag:        T
  S ize of plot object          10.00"
  A spect ratio of plot object   0.5500
  P age dimensions              11.00 x  8.50"
  M argins from page edges       0.00",  0.00"
  F ont size (relative)          0.0150
  W indow/screen size fraction   0.8000
  B lowup input method:        Cursor    
  O rientation of plot:        Landscape 
  C olor PostScript output?     F

      Option, Value   (or <Return>)    c>   ...............................................

  G raphics-enable flag:        F
  S ize of plot object          10.00"
  A spect ratio of plot object   0.5500
  P age dimensions              11.00 x  8.50"
  M argins from page edges       0.00",  0.00"
  F ont size (relative)          0.0150
  W indow/screen size fraction   0.8000
  B lowup input method:        Cursor    
  O rientation of plot:        Landscape 
  C olor PostScript output?     F

      Option, Value   (or <Return>)    c>  
 XFOIL   c>  
 Labeled airfoil file.  Name:  000089                                          

 Number of input coordinate points: 200
 Clockwise ordering
 Max thickness =     0.219395  at x =   0.181
 Max camber    =     0.072070  at x =   0.422

  LE  x,y  =  -0.00000   0.00088  |   Chord =   0.99988
  TE  x,y  =   0.99988   0.00005  |

 Current airfoil nodes set from buffer airfoil nodes ( 200 )

 XFOIL   c>  
 You are working with the buffer airfoil

.GDES   c>  
  i       x        y      angle
   2   0.9990   0.0004    0.058
   3   0.9978   0.0009    0.138
   4   0.9961   0.0016    0.139
   5   0.9938   0.0025    0.201
   6   0.9911   0.0036    0.243
   7   0.9880   0.0049    0.242
   8   0.9843   0.0063    0.289
   9   0.9801   0.0079    0.329
  10   0.9755   0.0097    0.329
  11   0.9704   0.0116    0.367
  12   0.9649   0.0136    0.389
  13   0.9589   0.0158    0.388
  14   0.9524   0.0180    0.409
  15   0.9455   0.0204    0.417
  16   0.9382   0.0229    0.417
  17   0.9304   0.0254    0.417
  18   0.9222   0.0280    0.411
  19   0.9135   0.0307    0.405
  20   0.9045   0.0335    0.389
  21   0.8951   0.0363    0.380
  22   0.8853   0.0391    0.357
  23   0.8751   0.0420    0.340
  24   0.8645   0.0449    0.312
  25   0.8536   0.0478    0.284
  26   0.8423   0.0508    0.261
  27   0.8307   0.0538    0.232
  28   0.8187   0.0569    0.203
  29   0.8065   0.0600    0.168
  30   0.7939   0.0631    0.143
  31   0.7810   0.0662    0.117
  32   0.7679   0.0694    0.085
  33   0.7545   0.0727    0.060
  34   0.7409   0.0760    0.044
  35   0.7270   0.0793    0.014
  36   0.7129   0.0827    0.002
  37   0.6986   0.0861   -0.011
  38   0.6841   0.0896   -0.024
  39   0.6694   0.0931   -0.028
  40   0.6545   0.0967   -0.028
  41   0.6395   0.1003   -0.023
  42   0.6243   0.1040   -0.019
  43   0.6091   0.1077   -0.003
  44   0.5937   0.1114    0.019
  45   0.5782   0.1152    0.036
  46   0.5627   0.1189    0.067
  47   0.5471   0.1227    0.104
  48   0.5314   0.1264    0.140
  49   0.5157   0.1301    0.182
  50   0.5000   0.1337    0.236
  51   0.4843   0.1373    0.283
  52   0.4686   0.1408    0.339
  53   0.4529   0.1442    0.407
  54   0.4373   0.1475    0.466
  55   0.4218   0.1506    0.541
  56   0.4063   0.1535    0.613
  57   0.3909   0.1563    0.687
  58   0.3757   0.1589    0.765
  59   0.3605   0.1612    0.851
  60   0.3455   0.1633    0.929
  61   0.3306   0.1651    1.022
  62   0.3159   0.1666    1.108
  63   0.3014   0.1678    1.192
  64   0.2871   0.1687    1.287
  65   0.2730   0.1693    1.368
  66   0.2591   0.1696    1.465
  67   0.2455   0.1694    1.544
  68   0.2321   0.1690    1.638
  69   0.2190   0.1681    1.714
  70   0.2061   0.1669    1.804
  71   0.1935   0.1653    1.874
  72   0.1813   0.1634    1.954
  73   0.1693   0.1610    2.026
  74   0.1577   0.1584    2.095
  75   0.1464   0.1553    2.151
  76   0.1355   0.1519    2.228
  77   0.1249   0.1482    2.274
  78   0.1147   0.1441    2.339
  79   0.1049   0.1397    2.398
  80   0.0955   0.1350    2.442
  81   0.0865   0.1300    2.504
  82   0.0778   0.1247    2.558
  83   0.0696   0.1192    2.615
  84   0.0618   0.1134    2.678
  85   0.0545   0.1073    2.733
  86   0.0476   0.1011    2.810
  87   0.0411   0.0947    2.876
  88   0.0351   0.0881    2.948
  89   0.0296   0.0813    3.027
  90   0.0245   0.0743    3.110
  91   0.0199   0.0673    3.188
  92   0.0157   0.0601    3.287
  93   0.0120   0.0528    3.347
  94   0.0089   0.0454    3.444
  95   0.0062   0.0380    3.508
  96   0.0039   0.0305    3.567
  97   0.0022   0.0229    3.632
  98   0.0010   0.0153    3.661
  99   0.0002   0.0076    3.688
 100   0.0000   0.0000    4.737
 101   0.0002  -0.0049    5.757
 102   0.0010  -0.0098    5.729
 103   0.0022  -0.0146    5.701
 104   0.0039  -0.0193    5.624
 105   0.0062  -0.0239    5.545
 106   0.0089  -0.0283    5.429
 107   0.0120  -0.0326    5.277
 108   0.0157  -0.0367    5.121
 109   0.0199  -0.0406    4.906
 110   0.0245  -0.0442    4.679
 111   0.0296  -0.0475    4.437
 112   0.0351  -0.0506    4.183
 113   0.0411  -0.0534    3.903
 114   0.0476  -0.0558    3.655
 115   0.0545  -0.0579    3.362
 116   0.0618  -0.0597    3.101
 117   0.0696  -0.0612    2.858
 118   0.0778  -0.0624    2.599
 119   0.0865  -0.0631    2.376
 120   0.0955  -0.0636    2.148
 121   0.1049  -0.0637    1.936
 122   0.1147  -0.0635    1.750
 123   0.1249  -0.0630    1.564
 124   0.1355  -0.0621    1.386
 125   0.1464  -0.0610    1.233
 126   0.1577  -0.0596    1.082
 127   0.1693  -0.0579    0.941
 128   0.1813  -0.0560    0.815
 129   0.1935  -0.0538    0.692
 130   0.2061  -0.0515    0.573
 131   0.2190  -0.0489    0.472
 132   0.2321  -0.0462    0.375
 133   0.2455  -0.0433    0.277
 134   0.2591  -0.0403    0.196
 135   0.2730  -0.0372    0.113
 136   0.2871  -0.0341    0.032
 137   0.3014  -0.0308   -0.031
 138   0.3159  -0.0276   -0.099
 139   0.3306  -0.0243   -0.160
 140   0.3455  -0.0210   -0.216
 141   0.3605  -0.0178   -0.268
 142   0.3757  -0.0145   -0.312
 143   0.3909  -0.0114   -0.359
 144   0.4063  -0.0083   -0.398
 145   0.4218  -0.0054   -0.429
 146   0.4373  -0.0025   -0.468
 147   0.4529   0.0002   -0.491
 148   0.4686   0.0029   -0.513
 149   0.4843   0.0053   -0.540
 150   0.5000   0.0077   -0.551
 151   0.5157   0.0098   -0.570
 152   0.5314   0.0119   -0.577
 153   0.5471   0.0137   -0.589
 154   0.5627   0.0154   -0.591
 155   0.5782   0.0169   -0.593
 156   0.5937   0.0182   -0.596
 157   0.6091   0.0194   -0.589
 158   0.6243   0.0204   -0.591
 159   0.6395   0.0213   -0.580
 160   0.6545   0.0219   -0.570
 161   0.6694   0.0225   -0.569
 162   0.6841   0.0228   -0.546
 163   0.6986   0.0231   -0.544
 164   0.7129   0.0232   -0.522
 165   0.7270   0.0231   -0.514
 166   0.7409   0.0230   -0.494
 167   0.7545   0.0227   -0.479
 168   0.7679   0.0223   -0.464
 169   0.7810   0.0218   -0.446
 170   0.7939   0.0213   -0.427
 171   0.8065   0.0206   -0.413
 172   0.8187   0.0199   -0.395
 173   0.8307   0.0191   -0.376
 174   0.8423   0.0183   -0.362
 175   0.8536   0.0174   -0.346
 176   0.8645   0.0164   -0.320
 177   0.8751   0.0155   -0.310
 178   0.8853   0.0145   -0.292
 179   0.8951   0.0135   -0.274
 180   0.9045   0.0125   -0.259
 181   0.9135   0.0115   -0.250
 182   0.9222   0.0105   -0.227
 183   0.9304   0.0095   -0.208
 184   0.9382   0.0086   -0.208
 185   0.9455   0.0076   -0.176
 186   0.9524   0.0068   -0.184
 187   0.9589   0.0059   -0.151
 188   0.9649   0.0051   -0.144
 189   0.9704   0.0043   -0.134
 190   0.9755   0.0036   -0.121
 191   0.9801   0.0029   -0.103
 192   0.9843   0.0023   -0.095
 193   0.9880   0.0018   -0.074
 194   0.9911   0.0013   -0.077
 195   0.9938   0.0009   -0.063
 196   0.9961   0.0006   -0.044
 197   0.9978   0.0003   -0.009
 198   0.9990   0.0002   -0.097
 199   0.9998   0.0000    0.163

 Maximum panel corner angle =  5.757   at  i,x,y  = 101   0.0002  -0.0049

 Enter corner angle criterion for refinement (deg):   2.879
 Enter type of spline parameter (1=uniform, 2=arclength):   1
 Enter refinement x limits:  -0.10000   1.10000
 Number of points added:           58
 Max thickness =     0.219361  at x =   0.181
 Max camber    =     0.072588  at x =   0.422

 Maximum panel corner angle =  2.810   at  i,x,y  =  86   0.0476   0.1011

.GDES   c>  
 Buffer airfoil is not identical to current airfoil

 XFOIL   c>  
 Blunt trailing edge.  Gap =  0.00027

 Paneling parameters used...
   Number of panel nodes       160
   Panel bunching parameter    1.000
   TE/LE panel density ratio   0.150
   Refined-area/LE panel density ratio    0.200
   Top    side refined area x/c limits  1.000 1.000
   Bottom side refined area x/c limits  1.000 1.000

 XFOIL   c>  
Enter output filename   s>  
 XFOIL   c>  
.OPERi   c>   Current iteration limit:          20

Enter new iteration limit   i>  
Enter new iteration limit   i>  
Enter new iteration limit   i>  
.OPERi   c>  
 M  =    0.0000
 Re =  0.3000E+06

.OPERv   c>  
 Sonic Cp =   -420.65      Sonic Q/Qinf =    22.825


.OPERv   c>  
 Polar  1 newly created for accumulation
 Airfoil archived with polar: 000089                                          

Enter  polar save filename  OR  <return> for no file   s>  
 New polar save file available

Enter  polar dump filename  OR  <return> for no file   s>  
 Polar dump file will NOT be written

 Polar accumulation enabled

.OPERva   c>   Calculating unit vorticity distributions ...
 Calculating wake trajectory ...
 Calculating source influence matrix ...

 Solving BL system ...

 Initializing BL ...
    side            1  ...
 MRCHUE: Inverse mode at  52     Hk =   4.166
 MRCHUE: Inverse mode at  53     Hk =   5.010
 MRCHUE: Inverse mode at  54     Hk =   5.856
 MRCHUE: Inverse mode at  55     Hk =   6.714
 MRCHUE: Inverse mode at  56     Hk =   7.589
 MRCHUE: Inverse mode at  57     Hk =   8.488
 MRCHUE: Inverse mode at  58     Hk =   9.415
 MRCHUE: Inverse mode at  59     Hk =   5.320
 MRCHUE: Inverse mode at  60     Hk =   2.895
 MRCHUE: Convergence failed at  86  side 1    Res =  0.7226E+01
    side            2  ...
 MRCHUE: Inverse mode at  36     Hk =   4.169
 MRCHUE: Inverse mode at  37     Hk =   4.902
 MRCHUE: Inverse mode at  38     Hk =   5.662
 MRCHUE: Inverse mode at  39     Hk =   6.462
 MRCHUE: Inverse mode at  40     Hk =   7.312
 MRCHUE: Inverse mode at  41     Hk =   8.222
 MRCHUE: Inverse mode at  42     Hk =   9.202
 MRCHUE: Inverse mode at  43     Hk =   7.082
 MRCHUE: Inverse mode at  44     Hk =   3.263
 MRCHUE: Convergence failed at  76  side 2    Res =  0.1722E+01

 MRCHDU: Convergence failed at  86  side 1    Res =  0.7576E+01
 Side 1  free  transition at x/c =  0.3471   59
 Side 2  free  transition at x/c =  0.2551   43

   1   rms: 0.3991E+00   max: 0.1840E+01   D at   78  2   RLX: 0.395
       a =  2.000      CL =  1.1618
      Cm = -0.1739     CD =  0.01044   =>   CDf =  0.00878    CDp =  0.00166

 Side 1  free  transition at x/c =  0.3510   59
 Side 2  free  transition at x/c =  0.2471   43

   2   rms: 0.1864E+00   max: 0.7755E+00   D at   81  2   RLX: 0.776
       a =  2.000      CL =  1.0826
      Cm = -0.1590     CD =  0.01638   =>   CDf =  0.00885    CDp =  0.00753

 Side 1  free  transition at x/c =  0.3570   58
 Side 2  free  transition at x/c =  0.2423   43

   3   rms: 0.3656E-01   max: 0.1648E+00   T at   43  2
       a =  2.000      CL =  1.0670
      Cm = -0.1560     CD =  0.01924   =>   CDf =  0.00872    CDp =  0.01052

 Side 1  free  transition at x/c =  0.3589   58
 Side 2  free  transition at x/c =  0.2389   43

   4   rms: 0.1186E-02   max: 0.1342E-01   T at   43  2
       a =  2.000      CL =  1.0665
      Cm = -0.1559     CD =  0.01937   =>   CDf =  0.00862    CDp =  0.01075

 Side 1  free  transition at x/c =  0.3587   58
 Side 2  free  transition at x/c =  0.2386   43

   5   rms: 0.1029E-04   max: -.7042E-04   D at   43  2
       a =  2.000      CL =  1.0665
      Cm = -0.1559     CD =  0.01937   =>   CDf =  0.00862    CDp =  0.01075

 Point added to stored polar  1
 Point written to save file  000089M0.04.log                                 
 Dump file unspecified or not available
 Calculating wake trajectory ...
 Calculating source influence matrix ...

 Solving BL system ...

 Side 1  free  transition at x/c =  0.3587   58
 Side 2  free  transition at x/c =  0.2386   43

   1   rms: 0.1339E+00   max: -.7157E+00   T at   43  2   RLX: 0.699
       a =  3.000      CL =  1.1454
      Cm = -0.1551     CD =  0.01970   =>   CDf =  0.00844    CDp =  0.01126

 Side 1  free  transition at x/c =  0.3499   59
 Side 2  free  transition at x/c =  0.2565   43

   2   rms: 0.5276E-01   max: 0.6354E+00   D at   43  2
       a =  3.000      CL =  1.1799
      Cm = -0.1550     CD =  0.01982   =>   CDf =  0.00841    CDp =  0.01141

 Side 1  free  transition at x/c =  0.3474   60
 Side 2  free  transition at x/c =  0.2608   42

   3   rms: 0.3082E-02   max: 0.3416E-01   D at   42  2
       a =  3.000      CL =  1.1799
      Cm = -0.1550     CD =  0.01989   =>   CDf =  0.00867    CDp =  0.01122

 Side 1  free  transition at x/c =  0.3473   60
 Side 2  free  transition at x/c =  0.2606   42

   4   rms: 0.1164E-03   max: 0.1285E-02   D at    4  1
       a =  3.000      CL =  1.1799
      Cm = -0.1550     CD =  0.01989   =>   CDf =  0.00867    CDp =  0.01122

 Side 1  free  transition at x/c =  0.3473   60
 Side 2  free  transition at x/c =  0.2606   42

   5   rms: 0.8554E-06   max: 0.5631E-05   T at   60  1
       a =  3.000      CL =  1.1799
      Cm = -0.1550     CD =  0.01989   =>   CDf =  0.00867    CDp =  0.01122

 Point added to stored polar  1
 Point written to save file  000089M0.04.log                                 
 Dump file unspecified or not available
 Calculating wake trajectory ...
 Calculating source influence matrix ...

 Solving BL system ...

 Side 1  free  transition at x/c =  0.3473   60
 Side 2  free  transition at x/c =  0.2606   42

   1   rms: 0.1378E+00   max: -.7490E+00   T at   42  2   RLX: 0.668
       a =  4.000      CL =  1.2564
      Cm = -0.1546     CD =  0.02077   =>   CDf =  0.00847    CDp =  0.01230

 Side 1  free  transition at x/c =  0.3409   60
 Side 2  free  transition at x/c =  0.2807   42

   2   rms: 0.5486E-01   max: 0.6778E+00   D at   42  2
       a =  4.000      CL =  1.2883
      Cm = -0.1534     CD =  0.02061   =>   CDf =  0.00860    CDp =  0.01201

 Side 1  free  transition at x/c =  0.3360   60
 Side 2  free  transition at x/c =  0.2856   42

   3   rms: 0.5763E-02   max: 0.6746E-01   D at   42  2
       a =  4.000      CL =  1.2898
      Cm = -0.1537     CD =  0.02069   =>   CDf =  0.00857    CDp =  0.01212

 Side 1  free  transition at x/c =  0.3361   60
 Side 2  free  transition at x/c =  0.2853   42

   4   rms: 0.8880E-04   max: 0.7198E-03   D at   42  2
       a =  4.000      CL =  1.2898
      Cm = -0.1537     CD =  0.02069   =>   CDf =  0.00857    CDp =  0.01212

 Point added to stored polar  1
 Point written to save file  000089M0.04.log                                 
 Dump file unspecified or not available
 Calculating wake trajectory ...
 Calculating source influence matrix ...

 Solving BL system ...

 Side 1  free  transition at x/c =  0.3361   60
 Side 2  free  transition at x/c =  0.2853   42

   1   rms: 0.1336E+00   max: -.7552E+00   T at   42  2   RLX: 0.662
       a =  5.000      CL =  1.3621
      Cm = -0.1527     CD =  0.02128   =>   CDf =  0.00836    CDp =  0.01292

 MRCHDU: Convergence failed at  43  side 2    Res =  0.3227E+02
 MRCHDU: Convergence failed at  44  side 2    Res =  0.2394E+01
 MRCHDU: Convergence failed at  45  side 2    Res =  0.3441E+01
 MRCHDU: Convergence failed at  46  side 2    Res =  0.5971E+01
 MRCHDU: Convergence failed at  47  side 2    Res =  0.9059E+01
 MRCHDU: Convergence failed at  48  side 2    Res =  0.1187E+02
 MRCHDU: Convergence failed at  49  side 2    Res =  0.1362E+02
 MRCHDU: Convergence failed at  50  side 2    Res =  0.1417E+02
 MRCHDU: Convergence failed at  51  side 2    Res =  0.1411E+02
 MRCHDU: Convergence failed at  52  side 2    Res =  0.1352E+02
 MRCHDU: Convergence failed at  53  side 2    Res =  0.1187E+02
 MRCHDU: Convergence failed at  54  side 2    Res =  0.1129E+02
 MRCHDU: Convergence failed at  55  side 2    Res =  0.1077E+02
 MRCHDU: Convergence failed at  56  side 2    Res =  0.9618E+01
 MRCHDU: Convergence failed at  57  side 2    Res =  0.9233E+01
 MRCHDU: Convergence failed at  58  side 2    Res =  0.8849E+01
 MRCHDU: Convergence failed at  59  side 2    Res =  0.7872E+01
 MRCHDU: Convergence failed at  60  side 2    Res =  0.7520E+01
 MRCHDU: Convergence failed at  61  side 2    Res =  0.7120E+01
 MRCHDU: Convergence failed at  62  side 2    Res =  0.6651E+01
 MRCHDU: Convergence failed at  63  side 2    Res =  0.6100E+01
 MRCHDU: Convergence failed at  64  side 2    Res =  0.5459E+01
 MRCHDU: Convergence failed at  65  side 2    Res =  0.4539E+01
 MRCHDU: Convergence failed at  66  side 2    Res =  0.3614E+01
 MRCHDU: Convergence failed at  67  side 2    Res =  0.2875E+01
 MRCHDU: Convergence failed at  68  side 2    Res =  0.6223E+01
 MRCHDU: Convergence failed at  69  side 2    Res =  0.5650E+01
 MRCHDU: Convergence failed at  70  side 2    Res =  0.5565E+01
 MRCHDU: Convergence failed at  71  side 2    Res =  0.8371E+01
 MRCHDU: Convergence failed at  72  side 2    Res =  0.2454E+02
 Side 1  free  transition at x/c =  0.3289   61
 Side 2  free  transition at x/c =  0.3079   42

   2   rms: 0.2364E+00   max: 0.1216E+01   T at   42  2   RLX: 0.614
       a =  5.000      CL =  1.2881
      Cm = -0.1208     CD =  0.02031   =>   CDf =  0.00658    CDp =  0.01374

 Side 1  free  transition at x/c =  0.3279   61
 Side 2  free  transition at x/c =  0.2869   41

   3   rms: 0.3292E+00   max: -.3327E+01   T at   41  2   RLX: 0.150
       a =  5.000      CL =  1.3578
      Cm = -0.1422     CD =  0.02669   =>   CDf =  0.00730    CDp =  0.01939

 MRCHDU: Convergence failed at  42  side 2    Res =  0.7173E+01
 MRCHDU: Convergence failed at  43  side 2    Res =  0.1589E+02
 MRCHDU: Convergence failed at  44  side 2    Res =  0.1227E+02
 MRCHDU: Convergence failed at  45  side 2    Res =  0.1207E+02
 MRCHDU: Convergence failed at  46  side 2    Res =  0.6937E+01
 MRCHDU: Convergence failed at  47  side 2    Res =  0.9503E+01
 MRCHDU: Convergence failed at  48  side 2    Res =  0.4415E+01
 Side 1  free  transition at x/c =  0.3275   61
 Side 2  free  transition at x/c =  0.3030   42

   4   rms: 0.4899E+00   max: -.3507E+01   D at   61  2   RLX: 0.143
       a =  5.000      CL =  1.3273
      Cm = -0.1396     CD =  0.02320   =>   CDf =  0.00737    CDp =  0.01582

 Side 1  free  transition at x/c =  0.3270   60
 Side 2  free  transition at x/c =  0.3102   42

   5   rms: 0.1966E+00   max: -.1264E+01   D at   56  2   RLX: 0.396
       a =  5.000      CL =  1.3658
      Cm = -0.1461     CD =  0.02307   =>   CDf =  0.00849    CDp =  0.01457

 Side 1  free  transition at x/c =  0.3264   60
 Side 2  free  transition at x/c =  0.3146   43

   6   rms: 0.3260E+00   max: -.2518E+01   D at   56  2   RLX: 0.199
       a =  5.000      CL =  1.3758
      Cm = -0.1486     CD =  0.02191   =>   CDf =  0.00834    CDp =  0.01357

 MRCHDU: Convergence failed at  52  side 2    Res =  0.3657E+00
 Side 1  free  transition at x/c =  0.3263   60
 Side 2  free  transition at x/c =  0.3164   43

   7   rms: 0.1804E+00   max: -.1320E+01   D at   58  2   RLX: 0.379
       a =  5.000      CL =  1.3847
      Cm = -0.1499     CD =  0.02179   =>   CDf =  0.00825    CDp =  0.01353

 Side 1  free  transition at x/c =  0.3260   61
 Side 2  free  transition at x/c =  0.3170   42

   8   rms: 0.1900E+00   max: -.1786E+01   D at   63  2   RLX: 0.280
       a =  5.000      CL =  1.3942
      Cm = -0.1517     CD =  0.02178   =>   CDf =  0.00847    CDp =  0.01331

 MRCHDU: Convergence failed at  62  side 2    Res =  0.5646E+00
 MRCHDU: Convergence failed at  63  side 2    Res =  0.1987E+00
 Side 1  free  transition at x/c =  0.3258   61
 Side 2  free  transition at x/c =  0.3174   42

   9   rms: 0.9501E-01   max: -.5639E+00   D at   58  2   RLX: 0.887
       a =  5.000      CL =  1.3991
      Cm = -0.1520     CD =  0.02169   =>   CDf =  0.00882    CDp =  0.01287

 Side 1  free  transition at x/c =  0.3258   61
 Side 2  free  transition at x/c =  0.3154   42

  10   rms: 0.1856E-01   max: -.1860E+00   D at   64  2
       a =  5.000      CL =  1.3992
      Cm = -0.1526     CD =  0.02172   =>   CDf =  0.00864    CDp =  0.01309

 Side 1  free  transition at x/c =  0.3258   61
 Side 2  free  transition at x/c =  0.3140   42

  11   rms: 0.7637E-03   max: -.9129E-02   D at   64  2
       a =  5.000      CL =  1.3990
      Cm = -0.1525     CD =  0.02173   =>   CDf =  0.00863    CDp =  0.01310

 Side 1  free  transition at x/c =  0.3258   61
 Side 2  free  transition at x/c =  0.3138   42

  12   rms: 0.6859E-05   max: 0.5990E-04   T at   42  2
       a =  5.000      CL =  1.3990
      Cm = -0.1525     CD =  0.02173   =>   CDf =  0.00863    CDp =  0.01310

 Point added to stored polar  1
 Point written to save file  000089M0.04.log                                 
 Dump file unspecified or not available
 Calculating wake trajectory ...
 Calculating source influence matrix ...

 Solving BL system ...

 Side 1  free  transition at x/c =  0.3258   61
 Side 2  free  transition at x/c =  0.3138   42

   1   rms: 0.1619E+00   max: -.9009E+00   T at   42  2   RLX: 0.555
       a =  6.000      CL =  1.4561
      Cm = -0.1516     CD =  0.02177   =>   CDf =  0.00865    CDp =  0.01312

 Side 1  free  transition at x/c =  0.3201   61
 Side 2  free  transition at x/c =  0.3385   43

   2   rms: 0.6789E-01   max: -.3137E+00   T at   43  2
       a =  6.000      CL =  1.5028
      Cm = -0.1507     CD =  0.02250   =>   CDf =  0.00822    CDp =  0.01428

 Side 1  free  transition at x/c =  0.3154   62
 Side 2  free  transition at x/c =  0.3508   42

   3   rms: 0.7857E-02   max: -.6908E-01   D at   43  2
       a =  6.000      CL =  1.5024
      Cm = -0.1506     CD =  0.02261   =>   CDf =  0.00842    CDp =  0.01419

 Side 1  free  transition at x/c =  0.3158   62
 Side 2  free  transition at x/c =  0.3479   42

   4   rms: 0.7345E-03   max: -.8960E-02   D at   42  2
       a =  6.000      CL =  1.5025
      Cm = -0.1506     CD =  0.02262   =>   CDf =  0.00842    CDp =  0.01420

 Side 1  free  transition at x/c =  0.3158   62
 Side 2  free  transition at x/c =  0.3479   42

   5   rms: 0.1887E-05   max: 0.1931E-04   D at   42  2
       a =  6.000      CL =  1.5025
      Cm = -0.1506     CD =  0.02262   =>   CDf =  0.00842    CDp =  0.01420

 Point added to stored polar  1
 Point written to save file  000089M0.04.log                                 
 Dump file unspecified or not available
 Calculating wake trajectory ...
 Calculating source influence matrix ...

 Solving BL system ...

 Side 1  free  transition at x/c =  0.3158   62
 Side 2  free  transition at x/c =  0.3479   42

   1   rms: 0.1351E+00   max: -.8445E+00   T at   42  2   RLX: 0.592
       a =  7.000      CL =  1.5638
      Cm = -0.1495     CD =  0.02323   =>   CDf =  0.00818    CDp =  0.01505

 Side 1  free  transition at x/c =  0.3106   62
 Side 2  free  transition at x/c =  0.3656   42

   2   rms: 0.1325E+00   max: -.8176E+00   T at   42  2   RLX: 0.612
       a =  7.000      CL =  1.5882
      Cm = -0.1492     CD =  0.02362   =>   CDf =  0.00858    CDp =  0.01504

 Side 1  free  transition at x/c =  0.3082   62
 Side 2  free  transition at x/c =  0.3875   42

   3   rms: 0.2172E-01   max: -.1266E+00   D at   41  2
       a =  7.000      CL =  1.6015
      Cm = -0.1483     CD =  0.02410   =>   CDf =  0.00837    CDp =  0.01573

 Side 1  free  transition at x/c =  0.3063   62
 Side 2  free  transition at x/c =  0.3876   42

   4   rms: 0.5875E-02   max: -.7663E-01   D at   42  2
       a =  7.000      CL =  1.6016
      Cm = -0.1483     CD =  0.02411   =>   CDf =  0.00834    CDp =  0.01577

 Side 1  free  transition at x/c =  0.3063   62
 Side 2  free  transition at x/c =  0.3879   42

   5   rms: 0.1377E-03   max: 0.1416E-02   D at   42  2
       a =  7.000      CL =  1.6016
      Cm = -0.1483     CD =  0.02411   =>   CDf =  0.00833    CDp =  0.01578

 Side 1  free  transition at x/c =  0.3063   62
 Side 2  free  transition at x/c =  0.3878   42

   6   rms: 0.9894E-06   max: -.4995E-05   T at   68  2
       a =  7.000      CL =  1.6016
      Cm = -0.1483     CD =  0.02411   =>   CDf =  0.00833    CDp =  0.01578

 Point added to stored polar  1
 Point written to save file  000089M0.04.log                                 
 Dump file unspecified or not available
 Calculating wake trajectory ...
 Calculating source influence matrix ...

 Solving BL system ...

 Side 1  free  transition at x/c =  0.3063   62
 Side 2  free  transition at x/c =  0.3878   42

   1   rms: 0.1329E+00   max: 0.9261E+00   C at   42  2   RLX: 0.584
       a =  8.000      CL =  1.6553
      Cm = -0.1463     CD =  0.02503   =>   CDf =  0.00807    CDp =  0.01696

 MRCHDU: Convergence failed at  43  side 2    Res =  0.3169E+01
 MRCHDU: Convergence failed at  44  side 2    Res =  0.9993E+01
 MRCHDU: Convergence failed at  45  side 2    Res =  0.2128E+02
 MRCHDU: Convergence failed at  46  side 2    Res =  0.1199E+02
 MRCHDU: Convergence failed at  47  side 2    Res =  0.1196E+02
 MRCHDU: Convergence failed at  48  side 2    Res =  0.1412E+02
 MRCHDU: Convergence failed at  49  side 2    Res =  0.1857E+02
 MRCHDU: Convergence failed at  50  side 2    Res =  0.2916E+02
 MRCHDU: Convergence failed at  51  side 2    Res =  0.8535E+02
 MRCHDU: Convergence failed at  52  side 2    Res =  0.8820E+02
 MRCHDU: Convergence failed at  53  side 2    Res =  0.2654E+02
 MRCHDU: Convergence failed at  54  side 2    Res =  0.1449E+02
 MRCHDU: Convergence failed at  55  side 2    Res =  0.9376E+01
 MRCHDU: Convergence failed at  56  side 2    Res =  0.6166E+01
 MRCHDU: Convergence failed at  57  side 2    Res =  0.4458E+01
 MRCHDU: Convergence failed at  58  side 2    Res =  0.3282E+01
 MRCHDU: Convergence failed at  59  side 2    Res =  0.2494E+01
 MRCHDU: Convergence failed at  60  side 2    Res =  0.1867E+01
 Side 1  free  transition at x/c =  0.3001   63
 Side 2  free  transition at x/c =  0.4216   43

   2   rms: 0.2109E+00   max: -.1224E+01   D at   58  2   RLX: 0.409
       a =  8.000      CL =  1.6532
      Cm = -0.1385     CD =  0.02466   =>   CDf =  0.00698    CDp =  0.01768

 Side 1  free  transition at x/c =  0.2987   63
 Side 2  free  transition at x/c =  0.4361   43

   3   rms: 0.5221E-01   max: -.5724E+00   D at   44  2   RLX: 0.873
       a =  8.000      CL =  1.6909
      Cm = -0.1447     CD =  0.02544   =>   CDf =  0.00813    CDp =  0.01732

 Side 1  free  transition at x/c =  0.2974   64
 Side 2  free  transition at x/c =  0.4409   43

   4   rms: 0.1013E-01   max: 0.1097E+00   D at   44  2
       a =  8.000      CL =  1.6966
      Cm = -0.1456     CD =  0.02540   =>   CDf =  0.00821    CDp =  0.01719

 Side 1  free  transition at x/c =  0.2971   64
 Side 2  free  transition at x/c =  0.4404   43

   5   rms: 0.6833E-03   max: -.9308E-02   D at   44  2
       a =  8.000      CL =  1.6966
      Cm = -0.1456     CD =  0.02540   =>   CDf =  0.00819    CDp =  0.01721

 Side 1  free  transition at x/c =  0.2971   64
 Side 2  free  transition at x/c =  0.4402   43

   6   rms: 0.6509E-05   max: -.1312E-03   D at   44  2
       a =  8.000      CL =  1.6966
      Cm = -0.1456     CD =  0.02540   =>   CDf =  0.00819    CDp =  0.01721

 Point added to stored polar  1
 Point written to save file  000089M0.04.log                                 
 Dump file unspecified or not available
 Calculating wake trajectory ...
 Calculating source influence matrix ...

 Solving BL system ...

 Side 1  free  transition at x/c =  0.2971   64
 Side 2  free  transition at x/c =  0.4402   43

   1   rms: 0.1560E+00   max: -.9908E+00   T at   43  2   RLX: 0.505
       a =  9.000      CL =  1.7486
      Cm = -0.1451     CD =  0.02629   =>   CDf =  0.00821    CDp =  0.01807

 Side 1  free  transition at x/c =  0.2935   63
 Side 2  free  transition at x/c =  0.4655   44

   2   rms: 0.1230E+00   max: -.1141E+01   T at   44  2   RLX: 0.438
       a =  9.000      CL =  1.7619
      Cm = -0.1438     CD =  0.02679   =>   CDf =  0.00822    CDp =  0.01858

 Side 1  free  transition at x/c =  0.2913   63
 Side 2  free  transition at x/c =  0.4809   44

   3   rms: 0.5672E-01   max: -.5292E+00   T at   44  2   RLX: 0.945
       a =  9.000      CL =  1.7745
      Cm = -0.1411     CD =  0.02749   =>   CDf =  0.00777    CDp =  0.01972

 MRCHDU: Convergence failed at  45  side 2    Res =  0.2589E+02
 MRCHDU: Convergence failed at  46  side 2    Res =  0.5415E+01
 Side 1  free  transition at x/c =  0.2883   64
 Side 2  free  transition at x/c =  0.5201   45

   4   rms: 0.2852E-01   max: -.3632E+00   D at   46  2
       a =  9.000      CL =  1.7762
      Cm = -0.1412     CD =  0.02735   =>   CDf =  0.00768    CDp =  0.01967

 Side 1  free  transition at x/c =  0.2882   64
 Side 2  free  transition at x/c =  0.5204   45

   5   rms: 0.1848E-02   max: 0.2235E-01   D at   47  2
       a =  9.000      CL =  1.7764
      Cm = -0.1412     CD =  0.02735   =>   CDf =  0.00776    CDp =  0.01959

 Side 1  free  transition at x/c =  0.2882   64
 Side 2  free  transition at x/c =  0.5197   45

   6   rms: 0.1687E-04   max: 0.2243E-03   C at   45  2
       a =  9.000      CL =  1.7764
      Cm = -0.1412     CD =  0.02735   =>   CDf =  0.00776    CDp =  0.01959

 Point added to stored polar  1
 Point written to save file  000089M0.04.log                                 
 Dump file unspecified or not available
 Calculating wake trajectory ...
 Calculating source influence matrix ...

 Solving BL system ...

 Side 1  free  transition at x/c =  0.2882   64
 Side 2  free  transition at x/c =  0.5197   45

   1   rms: 0.1516E+00   max: -.1552E+01   C at   45  2   RLX: 0.322
       a = 10.000      CL =  1.7989
      Cm = -0.1393     CD =  0.02790   =>   CDf =  0.00779    CDp =  0.02012

 Side 1  free  transition at x/c =  0.2853   64
 Side 2  free  transition at x/c =  0.5532   47

   2   rms: 0.1503E+00   max: -.1654E+01   C at   47  2   RLX: 0.302
       a = 10.000      CL =  1.8155
      Cm = -0.1387     CD =  0.02828   =>   CDf =  0.00774    CDp =  0.02054

 Side 1  free  transition at x/c =  0.2837   64
 Side 2  free  transition at x/c =  0.5803   48

   3   rms: 0.1451E+00   max: -.2233E+01   C at   48  2   RLX: 0.224
       a = 10.000      CL =  1.8254
      Cm = -0.1386     CD =  0.02856   =>   CDf =  0.00736    CDp =  0.02120

 Side 1  free  transition at x/c =  0.2829   65
 Side 2  free  transition at x/c =  0.5982   48

   4   rms: 0.1513E+00   max: -.2242E+01   C at   48  2   RLX: 0.223
       a = 10.000      CL =  1.8335
      Cm = -0.1387     CD =  0.02869   =>   CDf =  0.00766    CDp =  0.02102

 Side 1  free  transition at x/c =  0.2823   65
 Side 2  free  transition at x/c =  0.6214   49

   5   rms: 0.1829E+00   max: -.3165E+01   C at   49  2   RLX: 0.158
       a = 10.000      CL =  1.8387
      Cm = -0.1388     CD =  0.02877   =>   CDf =  0.00762    CDp =  0.02115

 Side 1  free  transition at x/c =  0.2820   65
 Side 2  free  transition at x/c =  0.6410   49

   6   rms: 0.7172E-01   max: -.8713E+00   C at   49  2   RLX: 0.574
       a = 10.000      CL =  1.8511
      Cm = -0.1383     CD =  0.02898   =>   CDf =  0.00759    CDp =  0.02139

 Side 1  free  transition at x/c =  0.2809   65
 Side 2 forced transition at x/c =  1.0001   66

   7   rms: 0.2801E-01   max: 0.3257E+00   D at   49  2
       a = 10.000      CL =  1.8545
      Cm = -0.1364     CD =  0.02885   =>   CDf =  0.00725    CDp =  0.02160

 Side 1  free  transition at x/c =  0.2800   64
 Side 2 forced transition at x/c =  1.0001   66

   8   rms: 0.2870E-02   max: 0.2088E-01   D at   50  2
       a = 10.000      CL =  1.8532
      Cm = -0.1362     CD =  0.02888   =>   CDf =  0.00731    CDp =  0.02157

 Side 1  free  transition at x/c =  0.2799   64
 Side 2 forced transition at x/c =  1.0001   66

   9   rms: 0.5697E-04   max: 0.4133E-03   D at   45  2
       a = 10.000      CL =  1.8532
      Cm = -0.1362     CD =  0.02888   =>   CDf =  0.00730    CDp =  0.02158

 Point added to stored polar  1
 Point written to save file  000089M0.04.log                                 
 Dump file unspecified or not available
 Calculating wake trajectory ...
 Calculating source influence matrix ...

 Solving BL system ...

 Side 1  free  transition at x/c =  0.2799   64
 Side 2 forced transition at x/c =  1.0001   66

   1   rms: 0.1216E+00   max: 0.3613E+00   T at   64  1
       a = 11.000      CL =  1.8774
      Cm = -0.1248     CD =  0.03212   =>   CDf =  0.00701    CDp =  0.02510

 Side 1  free  transition at x/c =  0.2719   65
 Side 2 forced transition at x/c =  1.0001   65

   2   rms: 0.2439E-01   max: -.1350E+00   D at   77  2
       a = 11.000      CL =  1.8875
      Cm = -0.1275     CD =  0.03244   =>   CDf =  0.00702    CDp =  0.02542

 Side 1  free  transition at x/c =  0.2721   65
 Side 2 forced transition at x/c =  1.0001   65

   3   rms: 0.1349E-02   max: -.1259E-01   D at   77  2
       a = 11.000      CL =  1.8879
      Cm = -0.1276     CD =  0.03251   =>   CDf =  0.00700    CDp =  0.02551

 Side 1  free  transition at x/c =  0.2720   65
 Side 2 forced transition at x/c =  1.0001   65

   4   rms: 0.1665E-04   max: -.7452E-04   D at   77  2
       a = 11.000      CL =  1.8879
      Cm = -0.1276     CD =  0.03251   =>   CDf =  0.00700    CDp =  0.02551

 Point added to stored polar  1
 Point written to save file  000089M0.04.log                                 
 Dump file unspecified or not available
 Calculating wake trajectory ...
 Calculating source influence matrix ...

 Solving BL system ...

 Side 1  free  transition at x/c =  0.2720   65
 Side 2 forced transition at x/c =  1.0001   65

   1   rms: 0.1118E+00   max: 0.2090E+00   D at   74  2   RLX: 0.895
       a = 12.000      CL =  1.9330
      Cm = -0.1224     CD =  0.03579   =>   CDf =  0.00670    CDp =  0.02908

 Side 1  free  transition at x/c =  0.2655   65
 Side 2 forced transition at x/c =  1.0001   64

   2   rms: 0.1644E-01   max: -.7228E-01   C at   65  1
       a = 12.000      CL =  1.9396
      Cm = -0.1226     CD =  0.03655   =>   CDf =  0.00711    CDp =  0.02944

 Side 1  free  transition at x/c =  0.2645   65
 Side 2 forced transition at x/c =  1.0001   64

   3   rms: 0.3009E-02   max: -.1454E-01   D at   91  1
       a = 12.000      CL =  1.9421
      Cm = -0.1228     CD =  0.03649   =>   CDf =  0.00703    CDp =  0.02946

 Side 1  free  transition at x/c =  0.2645   65
 Side 2 forced transition at x/c =  1.0001   64

   4   rms: 0.6855E-04   max: -.3648E-03   D at   72  2
       a = 12.000      CL =  1.9421
      Cm = -0.1228     CD =  0.03650   =>   CDf =  0.00703    CDp =  0.02946

 Point added to stored polar  1
 Point written to save file  000089M0.04.log                                 
 Dump file unspecified or not available
 Calculating wake trajectory ...
 Calculating source influence matrix ...

 Solving BL system ...

 Side 1  free  transition at x/c =  0.2645   65
 Side 2 forced transition at x/c =  1.0001   64

   1   rms: 0.1242E+00   max: 0.5000E+00   D at   88  1   RLX: 0.725
       a = 13.000      CL =  1.9316
      Cm = -0.1168     CD =  0.04238   =>   CDf =  0.00672    CDp =  0.03566

 Side 1  free  transition at x/c =  0.2585   66
 Side 2 forced transition at x/c =  1.0001   63

   2   rms: 0.3308E-01   max: 0.1680E+00   D at   89  1
       a = 13.000      CL =  1.9477
      Cm = -0.1178     CD =  0.04439   =>   CDf =  0.00672    CDp =  0.03767

 Side 1  free  transition at x/c =  0.2564   66
 Side 2 forced transition at x/c =  1.0001   63

   3   rms: 0.4080E-02   max: -.2575E-01   D at   90  1
       a = 13.000      CL =  1.9510
      Cm = -0.1180     CD =  0.04407   =>   CDf =  0.00667    CDp =  0.03740

 Side 1  free  transition at x/c =  0.2565   66
 Side 2 forced transition at x/c =  1.0001   63

   4   rms: 0.3495E-03   max: -.1479E-02   D at   74  2
       a = 13.000      CL =  1.9514
      Cm = -0.1180     CD =  0.04406   =>   CDf =  0.00668    CDp =  0.03739

 Side 1  free  transition at x/c =  0.2565   66
 Side 2 forced transition at x/c =  1.0001   63

   5   rms: 0.1110E-04   max: 0.1509E-03   C at   63  2
       a = 13.000      CL =  1.9514
      Cm = -0.1180     CD =  0.04406   =>   CDf =  0.00668    CDp =  0.03739

 Point added to stored polar  1
 Point written to save file  000089M0.04.log                                 
 Dump file unspecified or not available
 Calculating wake trajectory ...
 Calculating source influence matrix ...

 Solving BL system ...

 Side 1  free  transition at x/c =  0.2565   66
 Side 2 forced transition at x/c =  1.0001   63

   1   rms: 0.1048E+00   max: 0.3419E+00   T at   66  1   RLX: 0.670
       a = 14.000      CL =  1.9788
      Cm = -0.1165     CD =  0.04827   =>   CDf =  0.00636    CDp =  0.04191

 Side 1  free  transition at x/c =  0.2517   66
 Side 2 forced transition at x/c =  1.0001   62

   2   rms: 0.5314E-01   max: 0.2607E+00   D at   85  1
       a = 14.000      CL =  1.9481
      Cm = -0.1157     CD =  0.05458   =>   CDf =  0.00675    CDp =  0.04783

 Side 1  free  transition at x/c =  0.2487   66
 Side 2 forced transition at x/c =  1.0001   62

   3   rms: 0.1227E-01   max: -.7168E-01   D at   87  1
       a = 14.000      CL =  1.9583
      Cm = -0.1161     CD =  0.05356   =>   CDf =  0.00642    CDp =  0.04714

 Side 1  free  transition at x/c =  0.2486   66
 Side 2 forced transition at x/c =  1.0001   62

   4   rms: 0.5531E-03   max: -.2879E-02   D at   73  2
       a = 14.000      CL =  1.9588
      Cm = -0.1161     CD =  0.05363   =>   CDf =  0.00644    CDp =  0.04719

 Side 1  free  transition at x/c =  0.2486   66
 Side 2 forced transition at x/c =  1.0001   62

   5   rms: 0.6893E-05   max: -.7558E-04   D at   74  2
       a = 14.000      CL =  1.9588
      Cm = -0.1161     CD =  0.05363   =>   CDf =  0.00644    CDp =  0.04719

 Point added to stored polar  1
 Point written to save file  000089M0.04.log                                 
 Dump file unspecified or not available
 Calculating wake trajectory ...
 Calculating source influence matrix ...

 Solving BL system ...

 Side 1  free  transition at x/c =  0.2486   66
 Side 2 forced transition at x/c =  1.0001   62

   1   rms: 0.1557E+00   max: 0.7325E+00   D at   84  1   RLX: 0.519
       a = 15.000      CL =  1.9244
      Cm = -0.1168     CD =  0.06381   =>   CDf =  0.00648    CDp =  0.05734

 Side 1  free  transition at x/c =  0.2437   66
 Side 2 forced transition at x/c =  1.0001   62

   2   rms: 0.4873E-01   max: 0.1571E+00   T at   66  1
       a = 15.000      CL =  1.9503
      Cm = -0.1163     CD =  0.06601   =>   CDf =  0.00620    CDp =  0.05982

 Side 1  free  transition at x/c =  0.2401   66
 Side 2 forced transition at x/c =  1.0001   62

   3   rms: 0.1764E-01   max: -.9097E-01   D at   84  1
       a = 15.000      CL =  1.9618
      Cm = -0.1159     CD =  0.06410   =>   CDf =  0.00587    CDp =  0.05823

 Side 1  free  transition at x/c =  0.2405   67
 Side 2 forced transition at x/c =  1.0001   61

   4   rms: 0.2446E-02   max: 0.9793E-02   D at    2  1
       a = 15.000      CL =  1.9640
      Cm = -0.1159     CD =  0.06411   =>   CDf =  0.00625    CDp =  0.05786

 Side 1  free  transition at x/c =  0.2405   67
 Side 2 forced transition at x/c =  1.0001   61

   5   rms: 0.2803E-03   max: -.3106E-02   D at    4  1
       a = 15.000      CL =  1.9641
      Cm = -0.1159     CD =  0.06413   =>   CDf =  0.00626    CDp =  0.05787

 Side 1  free  transition at x/c =  0.2405   67
 Side 2 forced transition at x/c =  1.0001   61

   6   rms: 0.5538E-05   max: -.3716E-04   D at   74  2
       a = 15.000      CL =  1.9641
      Cm = -0.1159     CD =  0.06413   =>   CDf =  0.00626    CDp =  0.05787

 Point added to stored polar  1
 Point written to save file  000089M0.04.log                                 
 Dump file unspecified or not available

.OPERva   c>  
 XFOIL   c>  
0.1
resp: 
 ===================================================
  XFOIL Version 6.97
  Copyright (C) 2000   Mark Drela, Harold Youngren

  This software comes with ABSOLUTELY NO WARRANTY,
    subject to the GNU General Public License.

  Caveat computor
 ===================================================

 File  xfoil.def  not found

   QUIT    Exit program

  .OPER    Direct operating point(s)
  .MDES    Complex mapping design routine
  .QDES    Surface speed design routine
  .GDES    Geometry design routine

   SAVE f  Write airfoil to labeled coordinate file
   PSAV f  Write airfoil to plain coordinate file
   ISAV f  Write airfoil to ISES coordinate file
   MSAV f  Write airfoil to MSES coordinate file
   REVE    Reverse written-airfoil node ordering
   DELI i  Change written-airfoil file delimiters

   LOAD f  Read buffer airfoil from coordinate file
   NACA i  Set NACA 4,5-digit airfoil and buffer airfoil
   INTE    Set buffer airfoil by interpolating two airfoils
   NORM    Buffer airfoil normalization toggle
   HALF    Halve the number of points in buffer airfoil
   XYCM rr Change CM reference location, currently  0.25000 0.00000

   BEND    Display structural properties of current airfoil

   PCOP    Set current-airfoil panel nodes directly from buffer airfoil points
   PANE    Set current-airfoil panel nodes ( 160 ) based on curvature
  .PPAR    Show/change paneling

  .PLOP    Plotting options

   WDEF f  Write  current-settings file
   RDEF f  Reread current-settings file
   NAME s  Specify new airfoil name
   NINC    Increment name version number

   Z       Zoom    | (available in all menus)
   U       Unzoom  | 

 XFOIL   c>   ...............................................

  G raphics-enable flag:        T
  S ize of plot object          10.00"
  A spect ratio of plot object   0.5500
  P age dimensions              11.00 x  8.50"
  M argins from page edges       0.00",  0.00"
  F ont size (relative)          0.0150
  W indow/screen size fraction   0.8000
  B lowup input method:        Cursor    
  O rientation of plot:        Landscape 
  C olor PostScript output?     F

      Option, Value   (or <Return>)    c>   ...............................................

  G raphics-enable flag:        F
  S ize of plot object          10.00"
  A spect ratio of plot object   0.5500
  P age dimensions              11.00 x  8.50"
  M argins from page edges       0.00",  0.00"
  F ont size (relative)          0.0150
  W indow/screen size fraction   0.8000
  B lowup input method:        Cursor    
  O rientation of plot:        Landscape 
  C olor PostScript output?     F

      Option, Value   (or <Return>)    c>  
 XFOIL   c>  
 Labeled airfoil file.  Name:  000089                                          

 Number of input coordinate points: 200
 Clockwise ordering
 Max thickness =     0.219395  at x =   0.181
 Max camber    =     0.072070  at x =   0.422

  LE  x,y  =  -0.00000   0.00088  |   Chord =   0.99988
  TE  x,y  =   0.99988   0.00005  |

 Current airfoil nodes set from buffer airfoil nodes ( 200 )

 XFOIL   c>  
 You are working with the buffer airfoil

.GDES   c>  
  i       x        y      angle
   2   0.9990   0.0004    0.058
   3   0.9978   0.0009    0.138
   4   0.9961   0.0016    0.139
   5   0.9938   0.0025    0.201
   6   0.9911   0.0036    0.243
   7   0.9880   0.0049    0.242
   8   0.9843   0.0063    0.289
   9   0.9801   0.0079    0.329
  10   0.9755   0.0097    0.329
  11   0.9704   0.0116    0.367
  12   0.9649   0.0136    0.389
  13   0.9589   0.0158    0.388
  14   0.9524   0.0180    0.409
  15   0.9455   0.0204    0.417
  16   0.9382   0.0229    0.417
  17   0.9304   0.0254    0.417
  18   0.9222   0.0280    0.411
  19   0.9135   0.0307    0.405
  20   0.9045   0.0335    0.389
  21   0.8951   0.0363    0.380
  22   0.8853   0.0391    0.357
  23   0.8751   0.0420    0.340
  24   0.8645   0.0449    0.312
  25   0.8536   0.0478    0.284
  26   0.8423   0.0508    0.261
  27   0.8307   0.0538    0.232
  28   0.8187   0.0569    0.203
  29   0.8065   0.0600    0.168
  30   0.7939   0.0631    0.143
  31   0.7810   0.0662    0.117
  32   0.7679   0.0694    0.085
  33   0.7545   0.0727    0.060
  34   0.7409   0.0760    0.044
  35   0.7270   0.0793    0.014
  36   0.7129   0.0827    0.002
  37   0.6986   0.0861   -0.011
  38   0.6841   0.0896   -0.024
  39   0.6694   0.0931   -0.028
  40   0.6545   0.0967   -0.028
  41   0.6395   0.1003   -0.023
  42   0.6243   0.1040   -0.019
  43   0.6091   0.1077   -0.003
  44   0.5937   0.1114    0.019
  45   0.5782   0.1152    0.036
  46   0.5627   0.1189    0.067
  47   0.5471   0.1227    0.104
  48   0.5314   0.1264    0.140
  49   0.5157   0.1301    0.182
  50   0.5000   0.1337    0.236
  51   0.4843   0.1373    0.283
  52   0.4686   0.1408    0.339
  53   0.4529   0.1442    0.407
  54   0.4373   0.1475    0.466
  55   0.4218   0.1506    0.541
  56   0.4063   0.1535    0.613
  57   0.3909   0.1563    0.687
  58   0.3757   0.1589    0.765
  59   0.3605   0.1612    0.851
  60   0.3455   0.1633    0.929
  61   0.3306   0.1651    1.022
  62   0.3159   0.1666    1.108
  63   0.3014   0.1678    1.192
  64   0.2871   0.1687    1.287
  65   0.2730   0.1693    1.368
  66   0.2591   0.1696    1.465
  67   0.2455   0.1694    1.544
  68   0.2321   0.1690    1.638
  69   0.2190   0.1681    1.714
  70   0.2061   0.1669    1.804
  71   0.1935   0.1653    1.874
  72   0.1813   0.1634    1.954
  73   0.1693   0.1610    2.026
  74   0.1577   0.1584    2.095
  75   0.1464   0.1553    2.151
  76   0.1355   0.1519    2.228
  77   0.1249   0.1482    2.274
  78   0.1147   0.1441    2.339
  79   0.1049   0.1397    2.398
  80   0.0955   0.1350    2.442
  81   0.0865   0.1300    2.504
  82   0.0778   0.1247    2.558
  83   0.0696   0.1192    2.615
  84   0.0618   0.1134    2.678
  85   0.0545   0.1073    2.733
  86   0.0476   0.1011    2.810
  87   0.0411   0.0947    2.876
  88   0.0351   0.0881    2.948
  89   0.0296   0.0813    3.027
  90   0.0245   0.0743    3.110
  91   0.0199   0.0673    3.188
  92   0.0157   0.0601    3.287
  93   0.0120   0.0528    3.347
  94   0.0089   0.0454    3.444
  95   0.0062   0.0380    3.508
  96   0.0039   0.0305    3.567
  97   0.0022   0.0229    3.632
  98   0.0010   0.0153    3.661
  99   0.0002   0.0076    3.688
 100   0.0000   0.0000    4.737
 101   0.0002  -0.0049    5.757
 102   0.0010  -0.0098    5.729
 103   0.0022  -0.0146    5.701
 104   0.0039  -0.0193    5.624
 105   0.0062  -0.0239    5.545
 106   0.0089  -0.0283    5.429
 107   0.0120  -0.0326    5.277
 108   0.0157  -0.0367    5.121
 109   0.0199  -0.0406    4.906
 110   0.0245  -0.0442    4.679
 111   0.0296  -0.0475    4.437
 112   0.0351  -0.0506    4.183
 113   0.0411  -0.0534    3.903
 114   0.0476  -0.0558    3.655
 115   0.0545  -0.0579    3.362
 116   0.0618  -0.0597    3.101
 117   0.0696  -0.0612    2.858
 118   0.0778  -0.0624    2.599
 119   0.0865  -0.0631    2.376
 120   0.0955  -0.0636    2.148
 121   0.1049  -0.0637    1.936
 122   0.1147  -0.0635    1.750
 123   0.1249  -0.0630    1.564
 124   0.1355  -0.0621    1.386
 125   0.1464  -0.0610    1.233
 126   0.1577  -0.0596    1.082
 127   0.1693  -0.0579    0.941
 128   0.1813  -0.0560    0.815
 129   0.1935  -0.0538    0.692
 130   0.2061  -0.0515    0.573
 131   0.2190  -0.0489    0.472
 132   0.2321  -0.0462    0.375
 133   0.2455  -0.0433    0.277
 134   0.2591  -0.0403    0.196
 135   0.2730  -0.0372    0.113
 136   0.2871  -0.0341    0.032
 137   0.3014  -0.0308   -0.031
 138   0.3159  -0.0276   -0.099
 139   0.3306  -0.0243   -0.160
 140   0.3455  -0.0210   -0.216
 141   0.3605  -0.0178   -0.268
 142   0.3757  -0.0145   -0.312
 143   0.3909  -0.0114   -0.359
 144   0.4063  -0.0083   -0.398
 145   0.4218  -0.0054   -0.429
 146   0.4373  -0.0025   -0.468
 147   0.4529   0.0002   -0.491
 148   0.4686   0.0029   -0.513
 149   0.4843   0.0053   -0.540
 150   0.5000   0.0077   -0.551
 151   0.5157   0.0098   -0.570
 152   0.5314   0.0119   -0.577
 153   0.5471   0.0137   -0.589
 154   0.5627   0.0154   -0.591
 155   0.5782   0.0169   -0.593
 156   0.5937   0.0182   -0.596
 157   0.6091   0.0194   -0.589
 158   0.6243   0.0204   -0.591
 159   0.6395   0.0213   -0.580
 160   0.6545   0.0219   -0.570
 161   0.6694   0.0225   -0.569
 162   0.6841   0.0228   -0.546
 163   0.6986   0.0231   -0.544
 164   0.7129   0.0232   -0.522
 165   0.7270   0.0231   -0.514
 166   0.7409   0.0230   -0.494
 167   0.7545   0.0227   -0.479
 168   0.7679   0.0223   -0.464
 169   0.7810   0.0218   -0.446
 170   0.7939   0.0213   -0.427
 171   0.8065   0.0206   -0.413
 172   0.8187   0.0199   -0.395
 173   0.8307   0.0191   -0.376
 174   0.8423   0.0183   -0.362
 175   0.8536   0.0174   -0.346
 176   0.8645   0.0164   -0.320
 177   0.8751   0.0155   -0.310
 178   0.8853   0.0145   -0.292
 179   0.8951   0.0135   -0.274
 180   0.9045   0.0125   -0.259
 181   0.9135   0.0115   -0.250
 182   0.9222   0.0105   -0.227
 183   0.9304   0.0095   -0.208
 184   0.9382   0.0086   -0.208
 185   0.9455   0.0076   -0.176
 186   0.9524   0.0068   -0.184
 187   0.9589   0.0059   -0.151
 188   0.9649   0.0051   -0.144
 189   0.9704   0.0043   -0.134
 190   0.9755   0.0036   -0.121
 191   0.9801   0.0029   -0.103
 192   0.9843   0.0023   -0.095
 193   0.9880   0.0018   -0.074
 194   0.9911   0.0013   -0.077
 195   0.9938   0.0009   -0.063
 196   0.9961   0.0006   -0.044
 197   0.9978   0.0003   -0.009
 198   0.9990   0.0002   -0.097
 199   0.9998   0.0000    0.163

 Maximum panel corner angle =  5.757   at  i,x,y  = 101   0.0002  -0.0049

 Enter corner angle criterion for refinement (deg):   2.879
 Enter type of spline parameter (1=uniform, 2=arclength):   1
 Enter refinement x limits:  -0.10000   1.10000
 Number of points added:           58
 Max thickness =     0.219361  at x =   0.181
 Max camber    =     0.072588  at x =   0.422

 Maximum panel corner angle =  2.810   at  i,x,y  =  86   0.0476   0.1011

.GDES   c>  
 Buffer airfoil is not identical to current airfoil

 XFOIL   c>  
 Blunt trailing edge.  Gap =  0.00027

 Paneling parameters used...
   Number of panel nodes       160
   Panel bunching parameter    1.000
   TE/LE panel density ratio   0.150
   Refined-area/LE panel density ratio    0.200
   Top    side refined area x/c limits  1.000 1.000
   Bottom side refined area x/c limits  1.000 1.000

 XFOIL   c>  
.OPERi   c>   Current iteration limit:          20

Enter new iteration limit   i>  
Enter new iteration limit   i>  
Enter new iteration limit   i>  
.OPERi   c>  
 M  =    0.0000
 Re =  0.3000E+06

.OPERv   c>  
 Sonic Cp =    -66.86      Sonic Q/Qinf =     9.138


.OPERv   c>  
 Polar  1 newly created for accumulation
 Airfoil archived with polar: 000089                                          

Enter  polar save filename  OR  <return> for no file   s>  
 New polar save file available

Enter  polar dump filename  OR  <return> for no file   s>  
 Polar dump file will NOT be written

 Polar accumulation enabled

.OPERva   c>   Calculating unit vorticity distributions ...
 Calculating wake trajectory ...
 Calculating source influence matrix ...

 Solving BL system ...

 Initializing BL ...
    side            1  ...
 MRCHUE: Inverse mode at  52     Hk =   4.203
 MRCHUE: Inverse mode at  53     Hk =   5.046
 MRCHUE: Inverse mode at  54     Hk =   5.892
 MRCHUE: Inverse mode at  55     Hk =   6.750
 MRCHUE: Inverse mode at  56     Hk =   7.626
 MRCHUE: Inverse mode at  57     Hk =   8.525
 MRCHUE: Inverse mode at  58     Hk =   9.452
 MRCHUE: Inverse mode at  59     Hk =   5.095
 MRCHUE: Inverse mode at  60     Hk =   2.818
 MRCHUE: Convergence failed at  86  side 1    Res =  0.7090E+01
    side            2  ...
 MRCHUE: Inverse mode at  36     Hk =   4.194
 MRCHUE: Inverse mode at  37     Hk =   4.927
 MRCHUE: Inverse mode at  38     Hk =   5.688
 MRCHUE: Inverse mode at  39     Hk =   6.488
 MRCHUE: Inverse mode at  40     Hk =   7.338
 MRCHUE: Inverse mode at  41     Hk =   8.250
 MRCHUE: Inverse mode at  42     Hk =   9.230
 MRCHUE: Inverse mode at  43     Hk =   6.938
 MRCHUE: Inverse mode at  44     Hk =   3.191
 MRCHUE: Convergence failed at  76  side 2    Res =  0.1761E+01

 MRCHDU: Convergence failed at  86  side 1    Res =  0.7422E+01
 Side 1  free  transition at x/c =  0.3462   59
 Side 2  free  transition at x/c =  0.2544   43

   1   rms: 0.3979E+00   max: 0.1825E+01   D at   78  2   RLX: 0.392
       a =  2.000      CL =  1.1690
      Cm = -0.1745     CD =  0.01051   =>   CDf =  0.00878    CDp =  0.00173

 Side 1  free  transition at x/c =  0.3500   59
 Side 2  free  transition at x/c =  0.2465   43

   2   rms: 0.1875E+00   max: 0.7772E+00   D at   81  2   RLX: 0.775
       a =  2.000      CL =  1.0883
      Cm = -0.1594     CD =  0.01656   =>   CDf =  0.00883    CDp =  0.00773

 Side 1  free  transition at x/c =  0.3557   58
 Side 2  free  transition at x/c =  0.2419   43

   3   rms: 0.3745E-01   max: 0.1743E+00   T at   43  2
       a =  2.000      CL =  1.0719
      Cm = -0.1563     CD =  0.01938   =>   CDf =  0.00868    CDp =  0.01070

 Side 1  free  transition at x/c =  0.3577   58
 Side 2  free  transition at x/c =  0.2381   43

   4   rms: 0.1203E-02   max: -.1358E-01   D at   44  2
       a =  2.000      CL =  1.0715
      Cm = -0.1562     CD =  0.01951   =>   CDf =  0.00858    CDp =  0.01093

 Side 1  free  transition at x/c =  0.3575   58
 Side 2  free  transition at x/c =  0.2378   43

   5   rms: 0.6449E-05   max: 0.6942E-04   T at   43  2
       a =  2.000      CL =  1.0715
      Cm = -0.1562     CD =  0.01951   =>   CDf =  0.00858    CDp =  0.01093

 Point added to stored polar  1
 Point written to save file  000089M0.1.log                                  
 Dump file unspecified or not available
 Calculating wake trajectory ...
 Calculating source influence matrix ...

 Solving BL system ...

 Side 1  free  transition at x/c =  0.3575   58
 Side 2  free  transition at x/c =  0.2378   43

   1   rms: 0.1336E+00   max: -.7026E+00   T at   43  2   RLX: 0.712
       a =  3.000      CL =  1.1524
      Cm = -0.1554     CD =  0.01986   =>   CDf =  0.00841    CDp =  0.01146

 Side 1  free  transition at x/c =  0.3486   59
 Side 2  free  transition at x/c =  0.2556   43

   2   rms: 0.4932E-01   max: 0.5708E+00   D at   43  2
       a =  3.000      CL =  1.1857
      Cm = -0.1552     CD =  0.02003   =>   CDf =  0.00841    CDp =  0.01162

 Side 1  free  transition at x/c =  0.3463   60
 Side 2  free  transition at x/c =  0.2598   42

   3   rms: 0.2397E-02   max: 0.1875E-01   T at   60  1
       a =  3.000      CL =  1.1860
      Cm = -0.1553     CD =  0.02014   =>   CDf =  0.00867    CDp =  0.01147

 Side 1  free  transition at x/c =  0.3460   60
 Side 2  free  transition at x/c =  0.2598   42

   4   rms: 0.1179E-03   max: 0.1301E-02   D at    4  1
       a =  3.000      CL =  1.1860
      Cm = -0.1553     CD =  0.02015   =>   CDf =  0.00869    CDp =  0.01146

 Side 1  free  transition at x/c =  0.3460   60
 Side 2  free  transition at x/c =  0.2598   42

   5   rms: 0.5209E-06   max: -.3564E-05   D at    4  1
       a =  3.000      CL =  1.1860
      Cm = -0.1553     CD =  0.02015   =>   CDf =  0.00869    CDp =  0.01146

 Point added to stored polar  1
 Point written to save file  000089M0.1.log                                  
 Dump file unspecified or not available
 Calculating wake trajectory ...
 Calculating source influence matrix ...

 Solving BL system ...

 Side 1  free  transition at x/c =  0.3460   60
 Side 2  free  transition at x/c =  0.2598   42

   1   rms: 0.1410E+00   max: -.7385E+00   T at   42  2   RLX: 0.677
       a =  4.000      CL =  1.2653
      Cm = -0.1553     CD =  0.02146   =>   CDf =  0.00849    CDp =  0.01298

 Side 1  free  transition at x/c =  0.3386   60
 Side 2  free  transition at x/c =  0.2797   42

   2   rms: 0.5299E-01   max: 0.6284E+00   D at   42  2
       a =  4.000      CL =  1.2941
      Cm = -0.1536     CD =  0.02087   =>   CDf =  0.00855    CDp =  0.01232

 Side 1  free  transition at x/c =  0.3348   60
 Side 2  free  transition at x/c =  0.2845   42

   3   rms: 0.3888E-02   max: 0.4295E-01   D at   42  2
       a =  4.000      CL =  1.2959
      Cm = -0.1538     CD =  0.02089   =>   CDf =  0.00855    CDp =  0.01234

 Side 1  free  transition at x/c =  0.3349   60
 Side 2  free  transition at x/c =  0.2845   42

   4   rms: 0.4834E-04   max: 0.4628E-03   D at   42  2
       a =  4.000      CL =  1.2959
      Cm = -0.1538     CD =  0.02089   =>   CDf =  0.00855    CDp =  0.01234

 Point added to stored polar  1
 Point written to save file  000089M0.1.log                                  
 Dump file unspecified or not available
 Calculating wake trajectory ...
 Calculating source influence matrix ...

 Solving BL system ...

 Side 1  free  transition at x/c =  0.3349   60
 Side 2  free  transition at x/c =  0.2845   42

   1   rms: 0.1334E+00   max: -.7397E+00   T at   42  2   RLX: 0.676
       a =  5.000      CL =  1.3704
      Cm = -0.1528     CD =  0.02149   =>   CDf =  0.00834    CDp =  0.01315

 MRCHDU: Convergence failed at  43  side 2    Res =  0.1249E+02
 MRCHDU: Convergence failed at  44  side 2    Res =  0.2567E+01
 MRCHDU: Convergence failed at  45  side 2    Res =  0.3357E+01
 MRCHDU: Convergence failed at  46  side 2    Res =  0.5837E+01
 MRCHDU: Convergence failed at  47  side 2    Res =  0.8831E+01
 MRCHDU: Convergence failed at  48  side 2    Res =  0.1151E+02
 MRCHDU: Convergence failed at  49  side 2    Res =  0.1316E+02
 MRCHDU: Convergence failed at  50  side 2    Res =  0.1384E+02
 MRCHDU: Convergence failed at  51  side 2    Res =  0.1363E+02
 MRCHDU: Convergence failed at  52  side 2    Res =  0.1206E+02
 MRCHDU: Convergence failed at  53  side 2    Res =  0.1153E+02
 MRCHDU: Convergence failed at  54  side 2    Res =  0.1101E+02
 MRCHDU: Convergence failed at  55  side 2    Res =  0.9804E+01
 MRCHDU: Convergence failed at  56  side 2    Res =  0.9430E+01
 MRCHDU: Convergence failed at  57  side 2    Res =  0.9077E+01
 MRCHDU: Convergence failed at  58  side 2    Res =  0.7600E+01
 MRCHDU: Convergence failed at  59  side 2    Res =  0.7338E+01
 MRCHDU: Convergence failed at  60  side 2    Res =  0.7051E+01
 MRCHDU: Convergence failed at  61  side 2    Res =  0.7070E+01
 MRCHDU: Convergence failed at  62  side 2    Res =  0.6630E+01
 MRCHDU: Convergence failed at  63  side 2    Res =  0.6105E+01
 MRCHDU: Convergence failed at  64  side 2    Res =  0.5487E+01
 MRCHDU: Convergence failed at  65  side 2    Res =  0.4753E+01
 MRCHDU: Convergence failed at  66  side 2    Res =  0.3740E+01
 MRCHDU: Convergence failed at  67  side 2    Res =  0.2932E+01
 MRCHDU: Convergence failed at  68  side 2    Res =  0.6451E+01
 MRCHDU: Convergence failed at  69  side 2    Res =  0.5867E+01
 MRCHDU: Convergence failed at  70  side 2    Res =  0.5776E+01
 MRCHDU: Convergence failed at  71  side 2    Res =  0.8938E+01
 MRCHDU: Convergence failed at  72  side 2    Res =  0.3071E+02
 Side 1  free  transition at x/c =  0.3278   61
 Side 2  free  transition at x/c =  0.3073   42

   2   rms: 0.2320E+00   max: 0.1199E+01   T at   42  2   RLX: 0.615
       a =  5.000      CL =  1.2984
      Cm = -0.1217     CD =  0.02073   =>   CDf =  0.00660    CDp =  0.01413

 MRCHDU: Convergence failed at  59  side 2    Res =  0.4598E-01
 MRCHDU: Convergence failed at  61  side 2    Res =  0.1214E+02
 MRCHDU: Convergence failed at  62  side 2    Res =  0.2408E+01
 MRCHDU: Convergence failed at  65  side 2    Res =  0.1506E+01
 Side 1  free  transition at x/c =  0.3266   60
 Side 2  free  transition at x/c =  0.2866   41

   3   rms: 0.2268E+00   max: -.2093E+01   T at   41  2   RLX: 0.239
       a =  5.000      CL =  1.3593
      Cm = -0.1379     CD =  0.02596   =>   CDf =  0.00808    CDp =  0.01787

 MRCHDU: Convergence failed at  42  side 2    Res =  0.5413E+01
 MRCHDU: Convergence failed at  43  side 2    Res =  0.2320E+02
 MRCHDU: Convergence failed at  44  side 2    Res =  0.1072E+03
 MRCHDU: Convergence failed at  45  side 2    Res =  0.3634E+02
 MRCHDU: Convergence failed at  46  side 2    Res =  0.1576E+02
 MRCHDU: Convergence failed at  47  side 2    Res =  0.6146E+01
 MRCHDU: Convergence failed at  48  side 2    Res =  0.8617E+01
 MRCHDU: Convergence failed at  49  side 2    Res =  0.3082E+01
 MRCHDU: Convergence failed at  50  side 2    Res =  0.3026E+01
 MRCHDU: Convergence failed at  51  side 2    Res =  0.3991E+01
 MRCHDU: Convergence failed at  52  side 2    Res =  0.4974E+01
 MRCHDU: Convergence failed at  53  side 2    Res =  0.6112E+01
 MRCHDU: Convergence failed at  54  side 2    Res =  0.7414E+01
 MRCHDU: Convergence failed at  55  side 2    Res =  0.9026E+01
 MRCHDU: Convergence failed at  56  side 2    Res =  0.1182E+02
 MRCHDU: Convergence failed at  57  side 2    Res =  0.1532E+02
 MRCHDU: Convergence failed at  58  side 2    Res =  0.1681E+02
 MRCHDU: Convergence failed at  59  side 2    Res =  0.6369E+01
 MRCHDU: Convergence failed at  60  side 2    Res =  0.7793E+01
 MRCHDU: Convergence failed at  61  side 2    Res =  0.7374E+01
 MRCHDU: Convergence failed at  62  side 2    Res =  0.7082E+01
 MRCHDU: Convergence failed at  63  side 2    Res =  0.7156E+01
 MRCHDU: Convergence failed at  64  side 2    Res =  0.7319E+01
 MRCHDU: Convergence failed at  65  side 2    Res =  0.7364E+01
 MRCHDU: Convergence failed at  66  side 2    Res =  0.8598E+01
 MRCHDU: Convergence failed at  67  side 2    Res =  0.9307E+01
 MRCHDU: Convergence failed at  68  side 2    Res =  0.1036E+02
 MRCHDU: Convergence failed at  69  side 2    Res =  0.1205E+02
 MRCHDU: Convergence failed at  70  side 2    Res =  0.2778E+02
 MRCHDU: Convergence failed at  71  side 2    Res =  0.7304E+02
 MRCHDU: Convergence failed at  72  side 2    Res =  0.5375E+02
 Side 1  free  transition at x/c =  0.3262   60
 Side 2  free  transition at x/c =  0.3028   42

   4   rms: 0.3136E+00   max: -.1411E+01   D at   73  2   RLX: 0.354
       a =  5.000      CL =  1.2864
      Cm = -0.1104     CD =  0.02068   =>   CDf =  0.00650    CDp =  0.01418

 Side 1  free  transition at x/c =  0.3255   60
 Side 2  free  transition at x/c =  0.3033   42

   5   rms: 0.1054E+00   max: -.6646E+00   D at   43  2   RLX: 0.752
       a =  5.000      CL =  1.3800
      Cm = -0.1432     CD =  0.02230   =>   CDf =  0.00924    CDp =  0.01306

 Side 1  free  transition at x/c =  0.3249   60
 Side 2  free  transition at x/c =  0.3108   42

   6   rms: 0.2831E-01   max: -.2936E+00   D at   43  2
       a =  5.000      CL =  1.4048
      Cm = -0.1524     CD =  0.02202   =>   CDf =  0.00850    CDp =  0.01352

 Side 1  free  transition at x/c =  0.3247   61
 Side 2  free  transition at x/c =  0.3124   42

   7   rms: 0.1256E-02   max: -.1630E-01   D at   41  2
       a =  5.000      CL =  1.4047
      Cm = -0.1524     CD =  0.02201   =>   CDf =  0.00858    CDp =  0.01342

 Side 1  free  transition at x/c =  0.3247   61
 Side 2  free  transition at x/c =  0.3121   41

   8   rms: 0.4593E-03   max: -.5879E-02   D at   41  2
       a =  5.000      CL =  1.4047
      Cm = -0.1524     CD =  0.02200   =>   CDf =  0.00858    CDp =  0.01342

 Side 1  free  transition at x/c =  0.3247   61
 Side 2  free  transition at x/c =  0.3122   41

   9   rms: 0.1495E-04   max: -.1929E-03   D at    4  1
       a =  5.000      CL =  1.4047
      Cm = -0.1524     CD =  0.02200   =>   CDf =  0.00858    CDp =  0.01342

 Point added to stored polar  1
 Point written to save file  000089M0.1.log                                  
 Dump file unspecified or not available
 Calculating wake trajectory ...
 Calculating source influence matrix ...

 Solving BL system ...

 Side 1  free  transition at x/c =  0.3247   61
 Side 2  free  transition at x/c =  0.3122   41

   1   rms: 0.1338E+00   max: 0.8788E+00   C at   41  2   RLX: 0.604
       a =  6.000      CL =  1.4660
      Cm = -0.1508     CD =  0.02272   =>   CDf =  0.00860    CDp =  0.01412

 MRCHDU: Convergence failed at  43  side 2    Res =  0.2337E+03
 MRCHDU: Convergence failed at  44  side 2    Res =  0.2276E+01
 MRCHDU: Convergence failed at  45  side 2    Res =  0.2509E+01
 MRCHDU: Convergence failed at  46  side 2    Res =  0.3509E+01
 MRCHDU: Convergence failed at  47  side 2    Res =  0.4422E+01
 MRCHDU: Convergence failed at  48  side 2    Res =  0.5163E+01
 MRCHDU: Convergence failed at  49  side 2    Res =  0.5673E+01
 MRCHDU: Convergence failed at  50  side 2    Res =  0.5963E+01
 MRCHDU: Convergence failed at  51  side 2    Res =  0.6067E+01
 MRCHDU: Convergence failed at  52  side 2    Res =  0.6032E+01
 MRCHDU: Convergence failed at  53  side 2    Res =  0.5896E+01
 MRCHDU: Convergence failed at  54  side 2    Res =  0.5693E+01
 MRCHDU: Convergence failed at  55  side 2    Res =  0.5365E+01
 MRCHDU: Convergence failed at  56  side 2    Res =  0.4985E+01
 MRCHDU: Convergence failed at  57  side 2    Res =  0.4586E+01
 MRCHDU: Convergence failed at  58  side 2    Res =  0.4078E+01
 MRCHDU: Convergence failed at  59  side 2    Res =  0.3621E+01
 MRCHDU: Convergence failed at  60  side 2    Res =  0.3211E+01
 MRCHDU: Convergence failed at  61  side 2    Res =  0.2836E+01
 MRCHDU: Convergence failed at  62  side 2    Res =  0.5418E+01
 MRCHDU: Convergence failed at  63  side 2    Res =  0.4796E+01
 MRCHDU: Convergence failed at  64  side 2    Res =  0.4282E+01
 MRCHDU: Convergence failed at  65  side 2    Res =  0.4042E+01
 MRCHDU: Convergence failed at  66  side 2    Res =  0.3917E+01
 MRCHDU: Convergence failed at  67  side 2    Res =  0.5474E+01
 MRCHDU: Convergence failed at  68  side 2    Res =  0.9573E+01
 MRCHDU: Convergence failed at  69  side 2    Res =  0.2149E+03
 Side 1  free  transition at x/c =  0.3182   61
 Side 2  free  transition at x/c =  0.3346   42

   2   rms: 0.1842E+00   max: -.8481E+00   D at   69  2   RLX: 0.590
       a =  6.000      CL =  1.4396
      Cm = -0.1318     CD =  0.02188   =>   CDf =  0.00633    CDp =  0.01554

 Side 1  free  transition at x/c =  0.3161   62
 Side 2  free  transition at x/c =  0.3227   41

   3   rms: 0.1336E+00   max: -.9798E+00   D at   53  2   RLX: 0.510
       a =  6.000      CL =  1.4907
      Cm = -0.1456     CD =  0.02408   =>   CDf =  0.00847    CDp =  0.01562

 Side 1  free  transition at x/c =  0.3152   62
 Side 2  free  transition at x/c =  0.3344   41

   4   rms: 0.1947E+00   max: -.1527E+01   D at   53  2   RLX: 0.327
       a =  6.000      CL =  1.5011
      Cm = -0.1481     CD =  0.02372   =>   CDf =  0.00822    CDp =  0.01550

 MRCHDU: Convergence failed at  42  side 2    Res =  0.3173E+01
 MRCHDU: Convergence failed at  43  side 2    Res =  0.5840E+01
 MRCHDU: Convergence failed at  44  side 2    Res =  0.9620E+01
 MRCHDU: Convergence failed at  45  side 2    Res =  0.4815E+01
 MRCHDU: Convergence failed at  46  side 2    Res =  0.7597E+01
 MRCHDU: Convergence failed at  47  side 2    Res =  0.9634E+01
 MRCHDU: Convergence failed at  48  side 2    Res =  0.9236E+01
 MRCHDU: Convergence failed at  49  side 2    Res =  0.5950E+01
 MRCHDU: Convergence failed at  51  side 2    Res =  0.5513E+01
 MRCHDU: Convergence failed at  52  side 2    Res =  0.2763E+01
 MRCHDU: Convergence failed at  53  side 2    Res =  0.6426E+01
 MRCHDU: Convergence failed at  54  side 2    Res =  0.7059E+01
 MRCHDU: Convergence failed at  55  side 2    Res =  0.4406E+01
 Side 1  free  transition at x/c =  0.3150   62
 Side 2  free  transition at x/c =  0.3485   42

   5   rms: 0.1831E+00   max: 0.1071E+01   T at   46  2
       a =  6.000      CL =  1.5062
      Cm = -0.1499     CD =  0.02270   =>   CDf =  0.00765    CDp =  0.01504

 Side 1  free  transition at x/c =  0.3147   62
 Side 2  free  transition at x/c =  0.3371   41

   6   rms: 0.3446E-01   max: -.5546E+00   D at   42  2   RLX: 0.902
       a =  6.000      CL =  1.5087
      Cm = -0.1502     CD =  0.02315   =>   CDf =  0.00850    CDp =  0.01465

 MRCHDU: Convergence failed at  42  side 2    Res =  0.1606E+02
 MRCHDU: Convergence failed at  43  side 2    Res =  0.3513E+01
 MRCHDU: Convergence failed at  44  side 2    Res =  0.1082E+02
 MRCHDU: Convergence failed at  45  side 2    Res =  0.7663E+02
 MRCHDU: Convergence failed at  46  side 2    Res =  0.1842E+03
 MRCHDU: Convergence failed at  47  side 2    Res =  0.8588E+02
 MRCHDU: Convergence failed at  48  side 2    Res =  0.1017E+03
 MRCHDU: Convergence failed at  49  side 2    Res =  0.1653E+03
 MRCHDU: Convergence failed at  50  side 2    Res =  0.5350E+03
 MRCHDU: Convergence failed at  51  side 2    Res =  0.3313E+03
 MRCHDU: Convergence failed at  52  side 2    Res =  0.1384E+03
 MRCHDU: Convergence failed at  53  side 2    Res =  0.9802E+02
 MRCHDU: Convergence failed at  54  side 2    Res =  0.7908E+02
 MRCHDU: Convergence failed at  55  side 2    Res =  0.6794E+02
 MRCHDU: Convergence failed at  56  side 2    Res =  0.5973E+02
 MRCHDU: Convergence failed at  57  side 2    Res =  0.5345E+02
 MRCHDU: Convergence failed at  58  side 2    Res =  0.4743E+02
 MRCHDU: Convergence failed at  59  side 2    Res =  0.4064E+02
 MRCHDU: Convergence failed at  60  side 2    Res =  0.3322E+02
 MRCHDU: Convergence failed at  61  side 2    Res =  0.2562E+02
 MRCHDU: Convergence failed at  62  side 2    Res =  0.1856E+02
 MRCHDU: Convergence failed at  63  side 2    Res =  0.1227E+02
 MRCHDU: Convergence failed at  64  side 2    Res =  0.8128E+01
 MRCHDU: Convergence failed at  65  side 2    Res =  0.5269E+01
 MRCHDU: Convergence failed at  66  side 2    Res =  0.3535E+01
 MRCHDU: Convergence failed at  67  side 2    Res =  0.2393E+01
 Side 1  free  transition at x/c =  0.3146   62
 Side 2  free  transition at x/c =  0.3483   42

   7   rms: 0.2436E+00   max: -.1101E+01   D at   66  2   RLX: 0.454
       a =  6.000      CL =  1.4707
      Cm = -0.1332     CD =  0.02205   =>   CDf =  0.00658    CDp =  0.01547

 Side 1  free  transition at x/c =  0.3142   62
 Side 2  free  transition at x/c =  0.3474   42

   8   rms: 0.6640E-01   max: 0.3617E+00   D at   44  2
       a =  6.000      CL =  1.5102
      Cm = -0.1507     CD =  0.02289   =>   CDf =  0.00872    CDp =  0.01417

 Side 1  free  transition at x/c =  0.3146   62
 Side 2  free  transition at x/c =  0.3473   42

   9   rms: 0.2744E-02   max: 0.2990E-01   D at   43  2
       a =  6.000      CL =  1.5093
      Cm = -0.1505     CD =  0.02291   =>   CDf =  0.00841    CDp =  0.01450

 Side 1  free  transition at x/c =  0.3146   62
 Side 2  free  transition at x/c =  0.3466   42

  10   rms: 0.4596E-04   max: -.7292E-03   D at   44  2
       a =  6.000      CL =  1.5093
      Cm = -0.1505     CD =  0.02291   =>   CDf =  0.00842    CDp =  0.01450

 Point added to stored polar  1
 Point written to save file  000089M0.1.log                                  
 Dump file unspecified or not available
 Calculating wake trajectory ...
 Calculating source influence matrix ...

 Solving BL system ...

 Side 1  free  transition at x/c =  0.3146   62
 Side 2  free  transition at x/c =  0.3466   42

   1   rms: 0.1367E+00   max: -.8583E+00   T at   42  2   RLX: 0.583
       a =  7.000      CL =  1.5702
      Cm = -0.1495     CD =  0.02361   =>   CDf =  0.00817    CDp =  0.01544

 Side 1  free  transition at x/c =  0.3099   62
 Side 2  free  transition at x/c =  0.3635   42

   2   rms: 0.1884E+00   max: -.9628E+00   T at   42  2   RLX: 0.519
       a =  7.000      CL =  1.5920
      Cm = -0.1494     CD =  0.02384   =>   CDf =  0.00853    CDp =  0.01532

 Side 1  free  transition at x/c =  0.3075   62
 Side 2  free  transition at x/c =  0.3909   43

   3   rms: 0.2736E-01   max: -.1508E+00   D at   44  2
       a =  7.000      CL =  1.6067
      Cm = -0.1478     CD =  0.02451   =>   CDf =  0.00833    CDp =  0.01618

 Side 1  free  transition at x/c =  0.3049   62
 Side 2  free  transition at x/c =  0.3867   42

   4   rms: 0.2967E-02   max: -.3563E-01   C at   42  2
       a =  7.000      CL =  1.6071
      Cm = -0.1479     CD =  0.02447   =>   CDf =  0.00827    CDp =  0.01620

 Side 1  free  transition at x/c =  0.3050   62
 Side 2  free  transition at x/c =  0.3863   42

   5   rms: 0.6344E-04   max: 0.6316E-03   D at   42  2
       a =  7.000      CL =  1.6071
      Cm = -0.1479     CD =  0.02447   =>   CDf =  0.00826    CDp =  0.01621

 Point added to stored polar  1
 Point written to save file  000089M0.1.log                                  
 Dump file unspecified or not available
 Calculating wake trajectory ...
 Calculating source influence matrix ...

 Solving BL system ...

 Side 1  free  transition at x/c =  0.3050   62
 Side 2  free  transition at x/c =  0.3863   42

   1   rms: 0.1300E+00   max: -.8042E+00   T at   42  2   RLX: 0.622
       a =  8.000      CL =  1.6648
      Cm = -0.1458     CD =  0.02545   =>   CDf =  0.00801    CDp =  0.01744

 MRCHDU: Convergence failed at  43  side 2    Res =  0.4685E+01
 MRCHDU: Convergence failed at  44  side 2    Res =  0.6369E+01
 MRCHDU: Convergence failed at  45  side 2    Res =  0.5486E+02
 MRCHDU: Convergence failed at  46  side 2    Res =  0.1471E+02
 MRCHDU: Convergence failed at  47  side 2    Res =  0.1321E+02
 MRCHDU: Convergence failed at  48  side 2    Res =  0.1479E+02
 MRCHDU: Convergence failed at  49  side 2    Res =  0.1886E+02
 MRCHDU: Convergence failed at  50  side 2    Res =  0.2910E+02
 MRCHDU: Convergence failed at  51  side 2    Res =  0.6622E+02
 MRCHDU: Convergence failed at  52  side 2    Res =  0.1602E+03
 MRCHDU: Convergence failed at  53  side 2    Res =  0.3231E+02
 MRCHDU: Convergence failed at  54  side 2    Res =  0.1650E+02
 MRCHDU: Convergence failed at  55  side 2    Res =  0.1035E+02
 MRCHDU: Convergence failed at  56  side 2    Res =  0.6621E+01
 MRCHDU: Convergence failed at  57  side 2    Res =  0.4720E+01
 MRCHDU: Convergence failed at  58  side 2    Res =  0.3436E+01
 MRCHDU: Convergence failed at  59  side 2    Res =  0.2568E+01
 MRCHDU: Convergence failed at  60  side 2    Res =  0.1917E+01
 Side 1  free  transition at x/c =  0.2985   63
 Side 2  free  transition at x/c =  0.4215   43

   2   rms: 0.2087E+00   max: -.1215E+01   D at   58  2   RLX: 0.411
       a =  8.000      CL =  1.6617
      Cm = -0.1380     CD =  0.02524   =>   CDf =  0.00697    CDp =  0.01828

 Side 1  free  transition at x/c =  0.2974   63
 Side 2  free  transition at x/c =  0.4352   43

   3   rms: 0.5115E-01   max: -.5669E+00   D at   44  2   RLX: 0.882
       a =  8.000      CL =  1.6981
      Cm = -0.1443     CD =  0.02593   =>   CDf =  0.00840    CDp =  0.01753

 Side 1  free  transition at x/c =  0.2962   63
 Side 2  free  transition at x/c =  0.4380   44

   4   rms: 0.9082E-02   max: 0.1024E+00   D at   45  2
       a =  8.000      CL =  1.7044
      Cm = -0.1454     CD =  0.02595   =>   CDf =  0.00795    CDp =  0.01800

 Side 1  free  transition at x/c =  0.2957   64
 Side 2  free  transition at x/c =  0.4383   43

   5   rms: 0.7202E-03   max: -.1126E-01   D at   44  2
       a =  8.000      CL =  1.7044
      Cm = -0.1454     CD =  0.02596   =>   CDf =  0.00823    CDp =  0.01773

 Side 1  free  transition at x/c =  0.2957   64
 Side 2  free  transition at x/c =  0.4380   43

   6   rms: 0.1654E-03   max: -.2106E-02   D at    4  1
       a =  8.000      CL =  1.7044
      Cm = -0.1454     CD =  0.02596   =>   CDf =  0.00823    CDp =  0.01773

 Side 1  free  transition at x/c =  0.2957   64
 Side 2  free  transition at x/c =  0.4380   43

   7   rms: 0.3750E-05   max: 0.9567E-04   D at    2  1
       a =  8.000      CL =  1.7044
      Cm = -0.1454     CD =  0.02596   =>   CDf =  0.00823    CDp =  0.01773

 Point added to stored polar  1
 Point written to save file  000089M0.1.log                                  
 Dump file unspecified or not available
 Calculating wake trajectory ...
 Calculating source influence matrix ...

 Solving BL system ...

 Side 1  free  transition at x/c =  0.2957   64
 Side 2  free  transition at x/c =  0.4380   43

   1   rms: 0.1698E+00   max: -.1044E+01   T at   43  2   RLX: 0.479
       a =  9.000      CL =  1.7601
      Cm = -0.1460     CD =  0.02726   =>   CDf =  0.00825    CDp =  0.01900

 Side 1  free  transition at x/c =  0.2916   63
 Side 2  free  transition at x/c =  0.4657   44

   2   rms: 0.1105E+00   max: -.9545E+00   T at   44  2   RLX: 0.524
       a =  9.000      CL =  1.7720
      Cm = -0.1437     CD =  0.02726   =>   CDf =  0.00813    CDp =  0.01912

 Side 1  free  transition at x/c =  0.2890   63
 Side 2  free  transition at x/c =  0.4825   44

   3   rms: 0.4641E-01   max: -.4170E+00   T at   44  2
       a =  9.000      CL =  1.7781
      Cm = -0.1399     CD =  0.02810   =>   CDf =  0.00769    CDp =  0.02041

 MRCHDU: Convergence failed at  45  side 2    Res =  0.3711E+01
 MRCHDU: Convergence failed at  46  side 2    Res =  0.4006E+01
 Side 1  free  transition at x/c =  0.2868   64
 Side 2  free  transition at x/c =  0.5170   45

   4   rms: 0.3086E-01   max: -.3786E+00   D at   46  2
       a =  9.000      CL =  1.7769
      Cm = -0.1398     CD =  0.02791   =>   CDf =  0.00762    CDp =  0.02029

 Side 1  free  transition at x/c =  0.2870   64
 Side 2  free  transition at x/c =  0.5116   45

   5   rms: 0.2630E-02   max: 0.3897E-01   D at   47  2
       a =  9.000      CL =  1.7769
      Cm = -0.1397     CD =  0.02793   =>   CDf =  0.00773    CDp =  0.02020

 Side 1  free  transition at x/c =  0.2870   64
 Side 2  free  transition at x/c =  0.5123   45

   6   rms: 0.5491E-04   max: -.1135E-02   D at   47  2
       a =  9.000      CL =  1.7769
      Cm = -0.1397     CD =  0.02793   =>   CDf =  0.00773    CDp =  0.02020

 Point added to stored polar  1
 Point written to save file  000089M0.1.log                                  
 Dump file unspecified or not available
 Calculating wake trajectory ...
 Calculating source influence matrix ...

 Solving BL system ...

 Side 1  free  transition at x/c =  0.2870   64
 Side 2  free  transition at x/c =  0.5122   45

   1   rms: 0.1606E+00   max: -.1606E+01   C at   45  2   RLX: 0.311
       a = 10.000      CL =  1.7987
      Cm = -0.1380     CD =  0.02846   =>   CDf =  0.00775    CDp =  0.02071

 Side 1  free  transition at x/c =  0.2843   64
 Side 2  free  transition at x/c =  0.5414   46

   2   rms: 0.1176E+00   max: -.1286E+01   C at   46  2   RLX: 0.389
       a = 10.000      CL =  1.8206
      Cm = -0.1370     CD =  0.02910   =>   CDf =  0.00769    CDp =  0.02141

 Side 1  free  transition at x/c =  0.2823   64
 Side 2  free  transition at x/c =  0.5754   48

   3   rms: 0.1324E+00   max: -.1690E+01   C at   48  2   RLX: 0.296
       a = 10.000      CL =  1.8336
      Cm = -0.1371     CD =  0.02941   =>   CDf =  0.00736    CDp =  0.02204

 Side 1  free  transition at x/c =  0.2813   65
 Side 2  free  transition at x/c =  0.6020   48

   4   rms: 0.1610E+00   max: -.2775E+01   C at   48  2   RLX: 0.180
       a = 10.000      CL =  1.8411
      Cm = -0.1375     CD =  0.02954   =>   CDf =  0.00763    CDp =  0.02191

 Side 1  free  transition at x/c =  0.2808   65
 Side 2  free  transition at x/c =  0.6176   48

   5   rms: 0.6358E-01   max: -.6597E+00   T at   48  2   RLX: 0.758
       a = 10.000      CL =  1.8641
      Cm = -0.1378     CD =  0.02992   =>   CDf =  0.00764    CDp =  0.02228

 Side 1  free  transition at x/c =  0.2792   64
 Side 2 forced transition at x/c =  1.0001   66

   6   rms: 0.3737E-01   max: 0.5431E+00   D at   48  2
       a = 10.000      CL =  1.8471
      Cm = -0.1339     CD =  0.02973   =>   CDf =  0.00722    CDp =  0.02251

 Side 1  free  transition at x/c =  0.2790   64
 Side 2 forced transition at x/c =  1.0001   66

   7   rms: 0.4468E-02   max: 0.5174E-01   D at   49  2
       a = 10.000      CL =  1.8469
      Cm = -0.1339     CD =  0.02973   =>   CDf =  0.00715    CDp =  0.02258

 Side 1  free  transition at x/c =  0.2790   64
 Side 2 forced transition at x/c =  1.0001   66

   8   rms: 0.1642E-03   max: 0.1239E-02   D at   46  2
       a = 10.000      CL =  1.8469
      Cm = -0.1339     CD =  0.02973   =>   CDf =  0.00714    CDp =  0.02259

 Side 1  free  transition at x/c =  0.2790   64
 Side 2 forced transition at x/c =  1.0001   66

   9   rms: 0.1011E-05   max: -.6471E-05   C at   66  2
       a = 10.000      CL =  1.8469
      Cm = -0.1339     CD =  0.02973   =>   CDf =  0.00714    CDp =  0.02259

 Point added to stored polar  1
 Point written to save file  000089M0.1.log                                  
 Dump file unspecified or not available
 Calculating wake trajectory ...
 Calculating source influence matrix ...

 Solving BL system ...

 Side 1  free  transition at x/c =  0.2790   64
 Side 2 forced transition at x/c =  1.0001   66

   1   rms: 0.1258E+00   max: 0.3455E+00   T at   64  1   RLX: 0.953
       a = 11.000      CL =  1.8704
      Cm = -0.1239     CD =  0.03337   =>   CDf =  0.00686    CDp =  0.02651

 Side 1  free  transition at x/c =  0.2706   65
 Side 2 forced transition at x/c =  1.0001   65

   2   rms: 0.2339E-01   max: -.1104E+00   D at   77  2
       a = 11.000      CL =  1.8830
      Cm = -0.1260     CD =  0.03362   =>   CDf =  0.00696    CDp =  0.02666

 Side 1  free  transition at x/c =  0.2708   65
 Side 2 forced transition at x/c =  1.0001   65

   3   rms: 0.1466E-02   max: -.1038E-01   D at   77  2
       a = 11.000      CL =  1.8840
      Cm = -0.1261     CD =  0.03364   =>   CDf =  0.00692    CDp =  0.02672

 Side 1  free  transition at x/c =  0.2708   65
 Side 2 forced transition at x/c =  1.0001   65

   4   rms: 0.1686E-04   max: 0.7942E-04   D at   91  1
       a = 11.000      CL =  1.8839
      Cm = -0.1261     CD =  0.03364   =>   CDf =  0.00692    CDp =  0.02672

 Point added to stored polar  1
 Point written to save file  000089M0.1.log                                  
 Dump file unspecified or not available
 Calculating wake trajectory ...
 Calculating source influence matrix ...

 Solving BL system ...

 Side 1  free  transition at x/c =  0.2708   65
 Side 2 forced transition at x/c =  1.0001   65

   1   rms: 0.1127E+00   max: 0.2025E+00   D at   75  2   RLX: 0.858
       a = 12.000      CL =  1.9300
      Cm = -0.1217     CD =  0.03687   =>   CDf =  0.00663    CDp =  0.03024

 Side 1  free  transition at x/c =  0.2651   65
 Side 2 forced transition at x/c =  1.0001   64

   2   rms: 0.1886E-01   max: -.1057E+00   C at   65  1
       a = 12.000      CL =  1.9218
      Cm = -0.1206     CD =  0.03885   =>   CDf =  0.00700    CDp =  0.03185

 Side 1  free  transition at x/c =  0.2633   65
 Side 2 forced transition at x/c =  1.0001   64

   3   rms: 0.4270E-02   max: -.2467E-01   D at   91  1
       a = 12.000      CL =  1.9256
      Cm = -0.1210     CD =  0.03866   =>   CDf =  0.00684    CDp =  0.03183

 Side 1  free  transition at x/c =  0.2633   65
 Side 2 forced transition at x/c =  1.0001   64

   4   rms: 0.1115E-03   max: -.6401E-03   D at   74  2
       a = 12.000      CL =  1.9257
      Cm = -0.1210     CD =  0.03867   =>   CDf =  0.00685    CDp =  0.03183

 Side 1  free  transition at x/c =  0.2633   65
 Side 2 forced transition at x/c =  1.0001   64

   5   rms: 0.1649E-05   max: 0.2897E-04   C at   64  2
       a = 12.000      CL =  1.9257
      Cm = -0.1210     CD =  0.03867   =>   CDf =  0.00685    CDp =  0.03183

 Point added to stored polar  1
 Point written to save file  000089M0.1.log                                  
 Dump file unspecified or not available
 Calculating wake trajectory ...
 Calculating source influence matrix ...

 Solving BL system ...

 Side 1  free  transition at x/c =  0.2633   65
 Side 2 forced transition at x/c =  1.0001   64

   1   rms: 0.1260E+00   max: 0.5114E+00   D at   87  1   RLX: 0.684
       a = 13.000      CL =  1.9164
      Cm = -0.1168     CD =  0.04509   =>   CDf =  0.00688    CDp =  0.03821

 Side 1  free  transition at x/c =  0.2572   65
 Side 2 forced transition at x/c =  1.0001   64

   2   rms: 0.3536E-01   max: 0.1445E+00   D at   87  1
       a = 13.000      CL =  1.9371
      Cm = -0.1173     CD =  0.04681   =>   CDf =  0.00627    CDp =  0.04055

 Side 1  free  transition at x/c =  0.2551   66
 Side 2 forced transition at x/c =  1.0001   63

   3   rms: 0.5245E-02   maxGot result {'DD': 0.01937, 'Dmin': 0.01951, 'LL': -1.0665}
Completed successfully in 2.19 seconds. [{'DD': 0.01937, 'Dmin': 0.01951, 'LL': -1.0665}]
: -.3280E-01   D at   88  1
       a = 13.000      CL =  1.9411
      Cm = -0.1174     CD =  0.04640   =>   CDf =  0.00659    CDp =  0.03981

 Side 1  free  transition at x/c =  0.2552   66
 Side 2 forced transition at x/c =  1.0001   63

   4   rms: 0.4990E-03   max: -.3495E-02   D at    4  1
       a = 13.000      CL =  1.9415
      Cm = -0.1174     CD =  0.04640   =>   CDf =  0.00660    CDp =  0.03980

 Side 1  free  transition at x/c =  0.2552   66
 Side 2 forced transition at x/c =  1.0001   63

   5   rms: 0.1268E-04   max: 0.1991E-03   C at   63  2
       a = 13.000      CL =  1.9415
      Cm = -0.1174     CD =  0.04640   =>   CDf =  0.00660    CDp =  0.03980

 Point added to stored polar  1
 Point written to save file  000089M0.1.log                                  
 Dump file unspecified or not available
 Calculating wake trajectory ...
 Calculating source influence matrix ...

 Solving BL system ...

 Side 1  free  transition at x/c =  0.2552   66
 Side 2 forced transition at x/c =  1.0001   63

   1   rms: 0.1051E+00   max: 0.3713E+00   T at   66  1   RLX: 0.648
       a = 14.000      CL =  1.9754
      Cm = -0.1162     CD =  0.04998   =>   CDf =  0.00663    CDp =  0.04334

 Side 1  free  transition at x/c =  0.2510   65
 Side 2 forced transition at x/c =  1.0001   63

   2   rms: 0.9072E-01   max: 0.4141E+00   D at   85  1
       a = 14.000      CL =  1.9097
      Cm = -0.1162     CD =  0.06064   =>   CDf =  0.00663    CDp =  0.05401

 Side 1  free  transition at x/c =  0.2468   65
 Side 2 forced transition at x/c =  1.0001   63

   3   rms: 0.1391E-01   max: -.1047E+00   D at   86  1
       a = 14.000      CL =  1.9207
      Cm = -0.1166     CD =  0.05928   =>   CDf =  0.00621    CDp =  0.05308

 Side 1  free  transition at x/c =  0.2466   65
 Side 2 forced transition at x/c =  1.0001   63

   4   rms: 0.7144E-03   max: 0.1051E-01   D at   83  1
       a = 14.000      CL =  1.9213
      Cm = -0.1166     CD =  0.05935   =>   CDf =  0.00621    CDp =  0.05314

 Side 1  free  transition at x/c =  0.2466   65
 Side 2 forced transition at x/c =  1.0001   63

   5   rms: 0.1204E-04   max: 0.5382E-04   D at   76  2
       a = 14.000      CL =  1.9213
      Cm = -0.1166     CD =  0.05935   =>   CDf =  0.00621    CDp =  0.05314

 Point added to stored polar  1
 Point written to save file  000089M0.1.log                                  
 Dump file unspecified or not available
 Calculating wake trajectory ...
 Calculating source influence matrix ...

 Solving BL system ...

 Side 1  free  transition at x/c =  0.2466   65
 Side 2 forced transition at x/c =  1.0001   63

   1   rms: 0.1304E+00   max: 0.5992E+00   D at   81  1   RLX: 0.497
       a = 15.000      CL =  1.9010
      Cm = -0.1176     CD =  0.06830   =>   CDf =  0.00591    CDp =  0.06239

 Side 1  free  transition at x/c =  0.2420   66
 Side 2 forced transition at x/c =  1.0001   62

   2   rms: 0.5898E-01   max: 0.7539E-01   D at   75  2
       a = 15.000      CL =  1.9460
      Cm = -0.1163     CD =  0.06802   =>   CDf =  0.00608    CDp =  0.06194

 Side 1  free  transition at x/c =  0.2390   66
 Side 2 forced transition at x/c =  1.0001   62

   3   rms: 0.1924E-01   max: -.1012E+00   D at   82  1
       a = 15.000      CL =  1.9596
      Cm = -0.1155     CD =  0.06604   =>   CDf =  0.00619    CDp =  0.05985

 Side 1  free  transition at x/c =  0.2390   66
 Side 2 forced transition at x/c =  1.0001   62

   4   rms: 0.1359E-02   max: 0.8164E-02   D at   82  1
       a = 15.000      CL =  1.9609
      Cm = -0.1156     CD =  0.06625   =>   CDf =  0.00626    CDp =  0.05999

 Side 1  free  transition at x/c =  0.2390   66
 Side 2 forced transition at x/c =  1.0001   62

   5   rms: 0.1630E-04   max: -.2179E-03   D at   75  2
       a = 15.000      CL =  1.9609
      Cm = -0.1156     CD =  0.06626   =>   CDf =  0.00626    CDp =  0.06000

 Point added to stored polar  1
 Point written to save file  000089M0.1.log                                  
 Dump file unspecified or not available

.OPERva   c>  
 XFOIL   c>  
