Job launching after 0.32 seconds in submission.
Running python job.
Changed into dir /home/simonx/Documents/Udacity/Projects/capstone/PESM_NSGA2_CST_XFoil
Importing evaluationFunctionXFoil.py
Running evaluationFunctionXFoil.main()
0
1
2
0.04
resp: 
 ===================================================
  XFOIL Version 6.97
  Copyright (C) 2000   Mark Drela, Harold Youngren

  This software comes with ABSOLUTELY NO WARRANTY,
    subject to the GNU General Public License.

  Caveat computor
 ===================================================

 File  xfoil.def  not found

   QUIT    Exit program

  .OPER    Direct operating point(s)
  .MDES    Complex mapping design routine
  .QDES    Surface speed design routine
  .GDES    Geometry design routine

   SAVE f  Write airfoil to labeled coordinate file
   PSAV f  Write airfoil to plain coordinate file
   ISAV f  Write airfoil to ISES coordinate file
   MSAV f  Write airfoil to MSES coordinate file
   REVE    Reverse written-airfoil node ordering
   DELI i  Change written-airfoil file delimiters

   LOAD f  Read buffer airfoil from coordinate file
   NACA i  Set NACA 4,5-digit airfoil and buffer airfoil
   INTE    Set buffer airfoil by interpolating two airfoils
   NORM    Buffer airfoil normalization toggle
   HALF    Halve the number of points in buffer airfoil
   XYCM rr Change CM reference location, currently  0.25000 0.00000

   BEND    Display structural properties of current airfoil

   PCOP    Set current-airfoil panel nodes directly from buffer airfoil points
   PANE    Set current-airfoil panel nodes ( 160 ) based on curvature
  .PPAR    Show/change paneling

  .PLOP    Plotting options

   WDEF f  Write  current-settings file
   RDEF f  Reread current-settings file
   NAME s  Specify new airfoil name
   NINC    Increment name version number

   Z       Zoom    | (available in all menus)
   U       Unzoom  | 

 XFOIL   c>   ...............................................

  G raphics-enable flag:        T
  S ize of plot object          10.00"
  A spect ratio of plot object   0.5500
  P age dimensions              11.00 x  8.50"
  M argins from page edges       0.00",  0.00"
  F ont size (relative)          0.0150
  W indow/screen size fraction   0.8000
  B lowup input method:        Cursor    
  O rientation of plot:        Landscape 
  C olor PostScript output?     F

      Option, Value   (or <Return>)    c>   ...............................................

  G raphics-enable flag:        F
  S ize of plot object          10.00"
  A spect ratio of plot object   0.5500
  P age dimensions              11.00 x  8.50"
  M argins from page edges       0.00",  0.00"
  F ont size (relative)          0.0150
  W indow/screen size fraction   0.8000
  B lowup input method:        Cursor    
  O rientation of plot:        Landscape 
  C olor PostScript output?     F

      Option, Value   (or <Return>)    c>  
 XFOIL   c>  
 Labeled airfoil file.  Name:  000253                                          

 Number of input coordinate points: 200
 Clockwise ordering
 Max thickness =     0.142696  at x =   0.157
 Max camber    =     0.085196  at x =   0.624

  LE  x,y  =  -0.00004  -0.00175  |   Chord =   0.99992
  TE  x,y  =   0.99988   0.00005  |

 Current airfoil nodes set from buffer airfoil nodes ( 200 )

 XFOIL   c>  
 You are working with the buffer airfoil

.GDES   c>  
  i       x        y      angle
   2   0.9990   0.0004    0.017
   3   0.9978   0.0010    0.034
   4   0.9961   0.0017    0.034
   5   0.9938   0.0027    0.041
   6   0.9911   0.0039    0.053
   7   0.9880   0.0053    0.070
   8   0.9843   0.0069    0.083
   9   0.9801   0.0087    0.096
  10   0.9755   0.0107    0.105
  11   0.9704   0.0129    0.130
  12   0.9649   0.0153    0.149
  13   0.9589   0.0178    0.159
  14   0.9524   0.0205    0.204
  15   0.9455   0.0234    0.208
  16   0.9382   0.0265    0.243
  17   0.9304   0.0297    0.273
  18   0.9222   0.0330    0.304
  19   0.9135   0.0364    0.323
  20   0.9045   0.0399    0.366
  21   0.8951   0.0435    0.396
  22   0.8853   0.0472    0.437
  23   0.8751   0.0509    0.469
  24   0.8645   0.0547    0.504
  25   0.8536   0.0585    0.545
  26   0.8423   0.0623    0.583
  27   0.8307   0.0661    0.623
  28   0.8187   0.0698    0.659
  29   0.8065   0.0735    0.697
  30   0.7939   0.0771    0.733
  31   0.7810   0.0806    0.770
  32   0.7679   0.0840    0.805
  33   0.7545   0.0873    0.833
  34   0.7409   0.0904    0.871
  35   0.7270   0.0934    0.891
  36   0.7129   0.0962    0.918
  37   0.6986   0.0987    0.945
  38   0.6841   0.1011    0.954
  39   0.6694   0.1032    0.975
  40   0.6545   0.1052    0.984
  41   0.6395   0.1068    0.982
  42   0.6243   0.1083    0.992
  43   0.6091   0.1094    0.987
  44   0.5937   0.1103    0.977
  45   0.5782   0.1110    0.965
  46   0.5627   0.1114    0.952
  47   0.5471   0.1115    0.931
  48   0.5314   0.1114    0.905
  49   0.5157   0.1110    0.881
  50   0.5000   0.1104    0.848
  51   0.4843   0.1096    0.814
  52   0.4686   0.1085    0.775
  53   0.4529   0.1072    0.746
  54   0.4373   0.1058    0.697
  55   0.4218   0.1041    0.662
  56   0.4063   0.1023    0.620
  57   0.3909   0.1003    0.571
  58   0.3757   0.0982    0.537
  59   0.3605   0.0959    0.491
  60   0.3455   0.0935    0.454
  61   0.3306   0.0911    0.409
  62   0.3159   0.0885    0.373
  63   0.3014   0.0859    0.338
  64   0.2871   0.0832    0.307
  65   0.2730   0.0805    0.270
  66   0.2591   0.0778    0.250
  67   0.2455   0.0750    0.217
  68   0.2321   0.0723    0.197
  69   0.2190   0.0695    0.188
  70   0.2061   0.0668    0.164
  71   0.1935   0.0641    0.162
  72   0.1813   0.0614    0.153
  73   0.1693   0.0588    0.160
  74   0.1577   0.0562    0.159
  75   0.1464   0.0536    0.179
  76   0.1355   0.0511    0.193
  77   0.1249   0.0487    0.216
  78   0.1147   0.0462    0.250
  79   0.1049   0.0439    0.296
  80   0.0955   0.0415    0.338
  81   0.0865   0.0392    0.396
  82   0.0778   0.0370    0.469
  83   0.0696   0.0348    0.553
  84   0.0618   0.0326    0.650
  85   0.0545   0.0304    0.757
  86   0.0476   0.0283    0.924
  87   0.0411   0.0262    1.061
  88   0.0351   0.0241    1.295
  89   0.0296   0.0221    1.520
  90   0.0245   0.0200    1.858
  91   0.0199   0.0180    2.235
  92   0.0157   0.0160    2.777
  93   0.0120   0.0140    3.436
  94   0.0089   0.0120    4.332
  95   0.0062   0.0100    5.519
  96   0.0039   0.0080    7.091
  97   0.0022   0.0060    9.113
  98   0.0010   0.0040   11.363
  99   0.0002   0.0020   13.316
 100   0.0000   0.0000    9.067
 101   0.0002  -0.0071    3.976
 102   0.0010  -0.0142    4.015
 103   0.0022  -0.0212    4.093
 104   0.0039  -0.0281    4.171
 105   0.0062  -0.0348    4.280
 106   0.0089  -0.0413    4.417
 107   0.0120  -0.0476    4.518
 108   0.0157  -0.0536    4.666
 109   0.0199  -0.0593    4.771
 110   0.0245  -0.0646    4.845
 111   0.0296  -0.0696    4.892
 112   0.0351  -0.0741    4.913
 113   0.0411  -0.0782    4.849
 114   0.0476  -0.0819    4.765
 115   0.0545  -0.0851    4.606
 116   0.0618  -0.0878    4.406
 117   0.0696  -0.0900    4.184
 118   0.0778  -0.0917    3.923
 119   0.0865  -0.0929    3.654
 120   0.0955  -0.0935    3.361
 121   0.1049  -0.0937    3.084
 122   0.1147  -0.0932    2.814
 123   0.1249  -0.0923    2.538
 124   0.1355  -0.0909    2.294
 125   0.1464  -0.0890    2.048
 126   0.1577  -0.0865    1.824
 127   0.1693  -0.0837    1.613
 128   0.1813  -0.0804    1.417
 129   0.1935  -0.0766    1.223
 130   0.2061  -0.0725    1.060
 131   0.2190  -0.0680    0.887
 132   0.2321  -0.0632    0.743
 133   0.2455  -0.0581    0.596
 134   0.2591  -0.0528    0.455
 135   0.2730  -0.0472    0.333
 136   0.2871  -0.0414    0.201
 137   0.3014  -0.0355    0.088
 138   0.3159  -0.0295   -0.027
 139   0.3306  -0.0234   -0.134
 140   0.3455  -0.0173   -0.236
 141   0.3605  -0.0112   -0.340
 142   0.3757  -0.0052   -0.434
 143   0.3909   0.0008   -0.526
 144   0.4063   0.0066   -0.618
 145   0.4218   0.0123   -0.697
 146   0.4373   0.0178   -0.787
 147   0.4529   0.0231   -0.856
 148   0.4686   0.0281   -0.931
 149   0.4843   0.0329   -0.999
 150   0.5000   0.0374   -1.065
 151   0.5157   0.0416   -1.121
 152   0.5314   0.0454   -1.167
 153   0.5471   0.0489   -1.214
 154   0.5627   0.0520   -1.257
 155   0.5782   0.0548   -1.281
 156   0.5937   0.0572   -1.309
 157   0.6091   0.0592   -1.323
 158   0.6243   0.0609   -1.333
 159   0.6395   0.0622   -1.329
 160   0.6545   0.0631   -1.329
 161   0.6694   0.0637   -1.315
 162   0.6841   0.0639   -1.292
 163   0.6986   0.0638   -1.266
 164   0.7129   0.0634   -1.238
 165   0.7270   0.0626   -1.202
 166   0.7409   0.0616   -1.152
 167   0.7545   0.0604   -1.115
 168   0.7679   0.0589   -1.064
 169   0.7810   0.0572   -1.016
 170   0.7939   0.0553   -0.958
 171   0.8065   0.0532   -0.904
 172   0.8187   0.0509   -0.853
 173   0.8307   0.0486   -0.792
 174   0.8423   0.0461   -0.746
 175   0.8536   0.0436   -0.684
 176   0.8645   0.0410   -0.632
 177   0.8751   0.0383   -0.579
 178   0.8853   0.0357   -0.534
 179   0.8951   0.0330   -0.491
 180   0.9045   0.0304   -0.431
 181   0.9135   0.0278   -0.389
 182   0.9222   0.0252   -0.360
 183   0.9304   0.0227   -0.306
 184   0.9382   0.0203   -0.285
 185   0.9455   0.0180   -0.239
 186   0.9524   0.0158   -0.213
 187   0.9589   0.0137   -0.187
 188   0.9649   0.0118   -0.164
 189   0.9704   0.0100   -0.129
 190   0.9755   0.0083   -0.117
 191   0.9801   0.0067   -0.103
 192   0.9843   0.0053   -0.068
 193   0.9880   0.0041   -0.078
 194   0.9911   0.0030   -0.049
 195   0.9938   0.0021   -0.032
 196   0.9961   0.0013   -0.041
 197   0.9978   0.0008   -0.033
 198   0.9990   0.0003   -0.009
 199   0.9998   0.0001    0.093

 Maximum panel corner angle = 13.316   at  i,x,y  =  99   0.0002   0.0020

 Enter corner angle criterion for refinement (deg):   6.658
 Enter type of spline parameter (1=uniform, 2=arclength):   1
 Enter refinement x limits:  -0.10000   1.10000
 Number of points added:           10
 Max thickness =     0.142754  at x =   0.158
 Max camber    =     0.084464  at x =   0.624

 Maximum panel corner angle = 11.393   at  i,x,y  = 107   0.0001   0.0016

.GDES   c>  
 Buffer airfoil is not identical to current airfoil

 XFOIL   c>  
 Blunt trailing edge.  Gap =  0.00027

 Paneling parameters used...
   Number of panel nodes       160
   Panel bunching parameter    1.000
   TE/LE panel density ratio   0.150
   Refined-area/LE panel density ratio    0.200
   Top    side refined area x/c limits  1.000 1.000
   Bottom side refined area x/c limits  1.000 1.000

 XFOIL   c>  
Enter output filename   s>  
 XFOIL   c>  
.OPERi   c>   Current iteration limit:          20

Enter new iteration limit   i>  
Enter new iteration limit   i>  
Enter new iteration limit   i>  
.OPERi   c>  
 M  =    0.0000
 Re =  0.3000E+06

.OPERv   c>  
 Sonic Cp =   -420.65      Sonic Q/Qinf =    22.825


.OPERv   c>  
 Polar  1 newly created for accumulation
 Airfoil archived with polar: 000253                                          

Enter  polar save filename  OR  <return> for no file   s>  
 New polar save file available

Enter  polar dump filename  OR  <return> for no file   s>  
 Polar dump file will NOT be written

 Polar accumulation enabled

.OPERva   c>   Calculating unit vorticity distributions ...
 Calculating wake trajectory ...
 Calculating source influence matrix ...

 Solving BL system ...

 Initializing BL ...
    side            1  ...
 MRCHUE: Inverse mode at  17     Hk =   3.800
 MRCHUE: Inverse mode at  19     Hk =   3.800
 MRCHUE: Inverse mode at  20     Hk =   4.550
 MRCHUE: Inverse mode at  21     Hk =   5.236
 MRCHUE: Inverse mode at  22     Hk =   5.884
 MRCHUE: Inverse mode at  23     Hk =   6.511
 MRCHUE: Inverse mode at  24     Hk =   7.127
 MRCHUE: Inverse mode at  25     Hk =   7.741
 MRCHUE: Inverse mode at  26     Hk =   8.357
 MRCHUE: Inverse mode at  27     Hk =   8.982
 MRCHUE: Inverse mode at  28     Hk =   8.974
 MRCHUE: Inverse mode at  29     Hk =   5.984
 MRCHUE: Inverse mode at  30     Hk =   4.278
 MRCHUE: Inverse mode at  31     Hk =   3.032
 MRCHUE: Inverse mode at  81     Hk =   2.500
 MRCHUE: Inverse mode at  82     Hk =   2.500
 MRCHUE: Inverse mode at  83     Hk =   2.500
 MRCHUE: Inverse mode at  84     Hk =   2.500
 MRCHUE: Inverse mode at  85     Hk =   2.500
 MRCHUE: Inverse mode at  86     Hk =   2.500
    side            2  ...
 MRCHUE: Inverse mode at  27     Hk =   4.012
 MRCHUE: Inverse mode at  28     Hk =   4.887
 MRCHUE: Inverse mode at  29     Hk =   5.757
 MRCHUE: Inverse mode at  30     Hk =   6.636
 MRCHUE: Inverse mode at  31     Hk =   7.533
 MRCHUE: Inverse mode at  32     Hk =   8.454
 MRCHUE: Inverse mode at  33     Hk =   9.404
 MRCHUE: Inverse mode at  34     Hk =   7.736
 MRCHUE: Inverse mode at  35     Hk =   4.132
 MRCHUE: Inverse mode at  36     Hk =   2.500
 MRCHUE: Inverse mode at  37     Hk =   2.500
 MRCHUE: Inverse mode at  38     Hk =   2.500
 MRCHUE: Inverse mode at  39     Hk =   2.500
 MRCHUE: Inverse mode at  40     Hk =   2.500
 MRCHUE: Inverse mode at  41     Hk =   2.500
 MRCHUE: Inverse mode at  42     Hk =   2.500
 MRCHUE: Inverse mode at  43     Hk =   2.500
 MRCHUE: Inverse mode at  44     Hk =   2.500
 MRCHUE: Inverse mode at  45     Hk =   2.500
 MRCHUE: Inverse mode at  46     Hk =   2.500
 MRCHUE: Inverse mode at  47     Hk =   2.500
 MRCHUE: Inverse mode at  48     Hk =   2.500
 MRCHUE: Inverse mode at  49     Hk =   2.500
 MRCHUE: Inverse mode at  50     Hk =   2.500
 MRCHUE: Inverse mode at  51     Hk =   2.500
 MRCHUE: Inverse mode at  52     Hk =   2.500
 MRCHUE: Inverse mode at  53     Hk =   2.500
 MRCHUE: Inverse mode at  54     Hk =   2.500
 MRCHUE: Inverse mode at  55     Hk =   2.500
 MRCHUE: Inverse mode at  56     Hk =   2.500
 MRCHUE: Inverse mode at  57     Hk =   2.500
 MRCHUE: Inverse mode at  58     Hk =   2.500
 MRCHUE: Inverse mode at  59     Hk =   2.500
 MRCHUE: Inverse mode at  60     Hk =   2.500
 MRCHUE: Inverse mode at  61     Hk =   2.500
 MRCHUE: Inverse mode at  62     Hk =   2.500
 MRCHUE: Inverse mode at  63     Hk =   2.500
 MRCHUE: Inverse mode at  64     Hk =   2.500
 MRCHUE: Inverse mode at  65     Hk =   2.500
 MRCHUE: Inverse mode at  78     Hk =   2.005
 MRCHUE: Inverse mode at  79     Hk =   1.968

 Side 1  free  transition at x/c =  0.0372   28
 Side 2  free  transition at x/c =  0.2349   34

   1   rms: 0.7443E+00   max: -.5237E+01   T at   28  1   RLX: 0.095
       a =  2.000      CL =  1.2182
      Cm = -0.3281     CD =  0.02002   =>   CDf =  0.00923    CDp =  0.01080

 MRCHDU: Convergence failed at  30  side 1    Res =  0.3005E+01
 MRCHDU: Convergence failed at  31  side 1    Res =  0.3537E+02
 MRCHDU: Convergence failed at  32  side 1    Res =  0.8376E+01
 MRCHDU: Convergence failed at  33  side 1    Res =  0.1291E+02
 MRCHDU: Convergence failed at  34  side 1    Res =  0.2776E+02
 MRCHDU: Convergence failed at  35  side 1    Res =  0.5900E+02
 MRCHDU: Convergence failed at  36  side 1    Res =  0.1198E+03
 MRCHDU: Convergence failed at  37  side 1    Res =  0.2261E+03
 MRCHDU: Convergence failed at  38  side 1    Res =  0.1512E+04
 MRCHDU: Convergence failed at  39  side 1    Res =  0.4100E+03
 MRCHDU: Convergence failed at  40  side 1    Res =  0.2519E+03
 MRCHDU: Convergence failed at  41  side 1    Res =  0.1759E+03
 MRCHDU: Convergence failed at  42  side 1    Res =  0.1267E+03
 MRCHDU: Convergence failed at  43  side 1    Res =  0.9822E+02
 MRCHDU: Convergence failed at  44  side 1    Res =  0.7725E+02
 MRCHDU: Convergence failed at  45  side 1    Res =  0.6412E+02
 MRCHDU: Convergence failed at  46  side 1    Res =  0.5582E+02
 MRCHDU: Convergence failed at  47  side 1    Res =  0.4911E+02
 MRCHDU: Convergence failed at  48  side 1    Res =  0.4462E+02
 MRCHDU: Convergence failed at  49  side 1    Res =  0.4165E+02
 MRCHDU: Convergence failed at  50  side 1    Res =  0.4043E+02
 MRCHDU: Convergence failed at  51  side 1    Res =  0.4120E+02
 MRCHDU: Convergence failed at  52  side 1    Res =  0.4630E+02
 MRCHDU: Convergence failed at  53  side 1    Res =  0.6440E+02
 MRCHDU: Convergence failed at  54  side 1    Res =  0.1720E+03
 MRCHDU: Convergence failed at  55  side 1    Res =  0.1397E+03
 MRCHDU: Convergence failed at  56  side 1    Res =  0.4100E+02
 MRCHDU: Convergence failed at  57  side 1    Res =  0.2197E+02
 MRCHDU: Convergence failed at  58  side 1    Res =  0.1450E+02
 MRCHDU: Convergence failed at  59  side 1    Res =  0.1074E+02
 MRCHDU: Convergence failed at  60  side 1    Res =  0.8504E+01
 MRCHDU: Convergence failed at  61  side 1    Res =  0.7141E+01
 MRCHDU: Convergence failed at  62  side 1    Res =  0.6301E+01
 MRCHDU: Convergence failed at  63  side 1    Res =  0.5874E+01
 MRCHDU: Convergence failed at  64  side 1    Res =  0.5614E+01
 MRCHDU: Convergence failed at  65  side 1    Res =  0.5517E+01
 MRCHDU: Convergence failed at  66  side 1    Res =  0.5563E+01
 MRCHDU: Convergence failed at  67  side 1    Res =  0.5707E+01
 MRCHDU: Convergence failed at  68  side 1    Res =  0.5937E+01
 MRCHDU: Convergence failed at  69  side 1    Res =  0.5668E+01
 MRCHDU: Convergence failed at  70  side 1    Res =  0.6314E+01
 MRCHDU: Convergence failed at  71  side 1    Res =  0.7157E+01
 MRCHDU: Convergence failed at  72  side 1    Res =  0.8679E+01
 MRCHDU: Convergence failed at  73  side 1    Res =  0.1067E+02
 MRCHDU: Convergence failed at  74  side 1    Res =  0.1429E+02
 MRCHDU: Convergence failed at  75  side 1    Res =  0.2199E+02
 MRCHDU: Convergence failed at  76  side 1    Res =  0.4867E+02
 MRCHDU: Convergence failed at  77  side 1    Res =  0.2022E+03
 MRCHDU: Convergence failed at  78  side 1    Res =  0.3039E+02
 MRCHDU: Convergence failed at  79  side 1    Res =  0.1554E+02
 MRCHDU: Convergence failed at  80  side 1    Res =  0.2387E+02
 MRCHDU: Convergence failed at  81  side 1    Res =  0.6568E+02
 MRCHDU: Convergence failed at  82  side 1    Res =  0.9668E+02
 MRCHDU: Convergence failed at  83  side 1    Res =  0.1768E+03
 MRCHDU: Convergence failed at  84  side 1    Res =  0.6740E+03
 MRCHDU: Convergence failed at  85  side 1    Res =  0.4586E+03
 MRCHDU: Convergence failed at  86  side 1    Res =  0.2703E+03
 Side 1  free  transition at x/c =  0.0428   30
 Side 2  free  transition at x/c =  0.2268   34

   2   rms: 0.7219E+00   max: -.1299E+01   D at   68  2   RLX: 0.217
       a =  2.000      CL =  1.8846
      Cm = -0.5316     CD =  0.00870   =>   CDf =  0.00129    CDp =  0.00741

 Side 1  free  transition at x/c =  0.0446   30
 Side 2  free  transition at x/c =  0.2262   34

   3   rms: 0.4757E+00   max: 0.1378E+01   D at   33  1   RLX: 0.396
       a =  2.000      CL =  1.4635
      Cm = -0.3988     CD =  0.02283   =>   CDf =  0.01098    CDp =  0.01185

 Side 1  free  transition at x/c =  0.0472   29
 Side 2  free  transition at x/c =  0.2241   34

   4   rms: 0.2930E+01   max: -.2007E+02   T at   29  1   RLX: 0.025
       a =  2.000      CL =  1.4028
      Cm = -0.3847     CD =  0.02536   =>   CDf =  0.00999    CDp =  0.01537

 Side 1  free  transition at x/c =  0.0511   30
 Side 2  free  transition at x/c =  0.2210   34

   5   rms: 0.6428E+00   max: -.2647E+01   D at   73  1   RLX: 0.189
       a =  2.000      CL =  1.2864
      Cm = -0.3422     CD =  0.02254   =>   CDf =  0.00933    CDp =  0.01321

 MRCHDU: Convergence failed at  71  side 1    Res =  0.3385E+00
 MRCHDU: Convergence failed at  72  side 1    Res =  0.1203E+00
 MRCHDU: Convergence failed at  73  side 1    Res =  0.8541E+01
 MRCHDU: Convergence failed at  74  side 1    Res =  0.8767E+00
 MRCHDU: Convergence failed at  75  side 1    Res =  0.1317E+01
 MRCHDU: Convergence failed at  76  side 1    Res =  0.7300E+00
 MRCHDU: Convergence failed at  77  side 1    Res =  0.1866E+01
 MRCHDU: Convergence failed at  78  side 1    Res =  0.6356E+00
 MRCHDU: Convergence failed at  80  side 1    Res =  0.4860E+02
 MRCHDU: Convergence failed at  81  side 1    Res =  0.7696E+01
 MRCHDU: Convergence failed at  82  side 1    Res =  0.3702E+01
 MRCHDU: Convergence failed at  83  side 1    Res =  0.3831E+01
 MRCHDU: Convergence failed at  84  side 1    Res =  0.4961E+01
 MRCHDU: Convergence failed at  85  side 1    Res =  0.5907E+01
 Side 1  free  transition at x/c =  0.0536   31
 Side 2  free  transition at x/c =  0.2134   34

   6   rms: 0.5504E+00   max: 0.4186E+01   T at   31  1   RLX: 0.358
       a =  2.000      CL =  1.4322
      Cm = -0.4232     CD =  0.01527   =>   CDf =  0.01059    CDp =  0.00467

 MRCHDU: Convergence failed at  32  side 1    Res =  0.1369E+02
 MRCHDU: Convergence failed at  80  side 1    Res =  0.6310E+00
 MRCHDU: Convergence failed at  81  side 1    Res =  0.5470E+00
 MRCHDU: Convergence failed at  82  side 1    Res =  0.8357E+00
 MRCHDU: Convergence failed at  84  side 1    Res =  0.8117E+01
 MRCHDU: Convergence failed at  85  side 1    Res =  0.3980E+01
 MRCHDU: Convergence failed at  86  side 1    Res =  0.3378E+01
 MRCHDU: Convergence failed at  80  side 2    Res =  0.1292E+01
 Side 1  free  transition at x/c =  0.0464   30
 Side 2  free  transition at x/c =  0.2159   33

   7   rms: 0.3325E+00   max: -.8908E+00   D at   83  2   RLX: 0.466
       a =  2.000      CL =  1.4199
      Cm = -0.4091     CD =  0.01532   =>   CDf =  0.01096    CDp =  0.00436

 MRCHDU: Convergence failed at  83  side 1    Res =  0.7029E+00
 MRCHDU: Convergence failed at  84  side 1    Res =  0.8717E+00
 MRCHDU: Convergence failed at  85  side 1    Res =  0.8316E+00
 MRCHDU: Convergence failed at  86  side 1    Res =  0.1185E+01
 Side 1  free  transition at x/c =  0.0401   29
 Side 2  free  transition at x/c =  0.2160   33

   8   rms: 0.2889E+00   max: 0.6983E+00   D at   77  2   RLX: 0.637
       a =  2.000      CL =  1.2468
      Cm = -0.3489     CD =  0.01544   =>   CDf =  0.01084    CDp =  0.00460

 Side 1  free  transition at x/c =  0.0427   30
 Side 2  free  transition at x/c =  0.2102   33

   9   rms: 0.2723E+00   max: -.1486E+01   T at   30  1   RLX: 0.336
       a =  2.000      CL =  1.1749
      Cm = -0.3279     CD =  0.01879   =>   CDf =  0.00963    CDp =  0.00916

 Side 1  free  transition at x/c =  0.0455   29
 Side 2  free  transition at x/c =  0.2105   34

  10   rms: 0.2241E+00   max: -.1156E+01   T at   29  1   RLX: 0.433
       a =  2.000      CL =  1.0907
      Cm = -0.3062     CD =  0.02108   =>   CDf =  0.00918    CDp =  0.01190

 Side 1  free  transition at x/c =  0.0507   30
 Side 2  free  transition at x/c =  0.2098   34

  11   rms: 0.1791E+00   max: -.1117E+01   T at   30  1   RLX: 0.448
       a =  2.000      CL =  1.0080
      Cm = -0.2858     CD =  0.02286   =>   CDf =  0.00897    CDp =  0.01389

 Side 1  free  transition at x/c =  0.0570   31
 Side 2  free  transition at x/c =  0.2076   33

  12   rms: 0.8541E+00   max: 0.3364E+01   T at   33  2   RLX: 0.154
       a =  2.000      CL =  0.9344
      Cm = -0.2678     CD =  0.02462   =>   CDf =  0.00888    CDp =  0.01574

 Side 1  free  transition at x/c =  0.0645   31
 Side 2  free  transition at x/c =  0.2015   34

  13   rms: 0.2080E+00   max: -.7357E+00   D at   43  2   RLX: 0.680
       a =  2.000      CL =  0.9372
      Cm = -0.2720     CD =  0.02356   =>   CDf =  0.00818    CDp =  0.01538

 Side 1  free  transition at x/c =  0.0660   32
 Side 2  free  transition at x/c =  0.2065   34

  14   rms: 0.7456E+02   max: 0.2764E+03   D at   46  2   RLX: 0.002
       a =  2.000      CL =  0.8710
      Cm = -0.2531     CD =  0.02791   =>   CDf =  0.00836    CDp =  0.01955

 Side 1  free  transition at x/c =  0.0743   33
 Side 2  free  transition at x/c =  0.2002   34

  15   rms: 0.5675E+01   max: 0.2629E+02   T at   33  1   RLX: 0.023
       a =  2.000      CL =  0.9288
      Cm = -0.2715     CD =  0.02572   =>   CDf =  0.00792    CDp =  0.01780

 MRCHDU: Convergence failed at  33  side 1    Res =  0.2537E+01
 Side 1  free  transition at x/c =  0.0660   32
 Side 2  free  transition at x/c =  0.2082   34

  16   rms: 0.2120E+00   max: -.8704E+00   D at   69  2   RLX: 0.574
       a =  2.000      CL =  0.9437
      Cm = -0.2741     CD =  0.02677   =>   CDf =  0.00812    CDp =  0.01864

 Side 1  free  transition at x/c =  0.0653   32
 Side 2  free  transition at x/c =  0.2090   34

  17   rms: 0.6621E+00   max: -.3831E+01   T at   32  1   RLX: 0.131
       a =  2.000      CL =  0.8984
      Cm = -0.2614     CD =  0.02820   =>   CDf =  0.00840    CDp =  0.01980

 Side 1  free  transition at x/c =  0.0700   32
 Side 2  free  transition at x/c =  0.2046   34

  18   rms: 0.1569E+00   max: -.7001E+00   D at   68  2   RLX: 0.714
       a =  2.000      CL =  0.9155
      Cm = -0.2671     CD =  0.02666   =>   CDf =  0.00804    CDp =  0.01862

 Side 1  free  transition at x/c =  0.0715   32
 Side 2  free  transition at x/c =  0.2050   34

  19   rms: 0.4095E+01   max: -.2378E+02   C at   32  1   RLX: 0.021
       a =  2.000      CL =  0.9467
      Cm = -0.2741     CD =  0.02645   =>   CDf =  0.00819    CDp =  0.01825

 Side 1  free  transition at x/c =  0.0632   31
 Side 2  free  transition at x/c =  0.2094   35

  20   rms: 0.1486E+00   max: 0.1170E+01   T at   35  2   RLX: 0.557
       a =  2.000      CL =  0.8986
      Cm = -0.2627     CD =  0.02813   =>   CDf =  0.00852    CDp =  0.01962

 MRCHDU: Convergence failed at  35  side 2    Res =  0.7153E+01
 MRCHDU: Convergence failed at  36  side 2    Res =  0.5475E+02
 MRCHDU: Convergence failed at  37  side 2    Res =  0.2921E+02
 MRCHDU: Convergence failed at  38  side 2    Res =  0.3886E+02
 MRCHDU: Convergence failed at  39  side 2    Res =  0.4829E+02
 MRCHDU: Convergence failed at  40  side 2    Res =  0.3197E+02
 MRCHDU: Convergence failed at  41  side 2    Res =  0.5888E+02
 MRCHDU: Convergence failed at  42  side 2    Res =  0.6364E+02
 MRCHDU: Convergence failed at  43  side 2    Res =  0.9031E+02
 MRCHDU: Convergence failed at  44  side 2    Res =  0.4678E+03
 MRCHDU: Convergence failed at  45  side 2    Res =  0.5711E+02
 MRCHDU: Convergence failed at  46  side 2    Res =  0.6120E+02
 MRCHDU: Convergence failed at  47  side 2    Res =  0.3777E+02
 MRCHDU: Convergence failed at  48  side 2    Res =  0.3348E+02
 MRCHDU: Convergence failed at  49  side 2    Res =  0.2639E+02
 MRCHDU: Convergence failed at  50  side 2    Res =  0.2846E+02
 MRCHDU: Convergence failed at  51  side 2    Res =  0.3119E+02
 MRCHDU: Convergence failed at  52  side 2    Res =  0.3375E+02
 MRCHDU: Convergence failed at  53  side 2    Res =  0.3604E+02
 MRCHDU: Convergence failed at  54  side 2    Res =  0.3273E+02
 MRCHDU: Convergence failed at  55  side 2    Res =  0.3406E+02
 MRCHDU: Convergence failed at  56  side 2    Res =  0.3510E+02
 MRCHDU: Convergence failed at  57  side 2    Res =  0.3583E+02
 MRCHDU: Convergence failed at  58  side 2    Res =  0.3600E+02
 MRCHDU: Convergence failed at  59  side 2    Res =  0.4242E+02
 MRCHDU: Convergence failed at  60  side 2    Res =  0.4491E+02
 MRCHDU: Convergence failed at  61  side 2    Res =  0.4526E+02
 MRCHDU: Convergence failed at  62  side 2    Res =  0.4590E+02
 MRCHDU: Convergence failed at  63  side 2    Res =  0.4706E+02
 MRCHDU: Convergence failed at  64  side 2    Res =  0.4887E+02
 MRCHDU: Convergence failed at  65  side 2    Res =  0.1223E+03
 MRCHDU: Convergence failed at  66  side 2    Res =  0.1337E+03
 MRCHDU: Convergence failed at  67  side 2    Res =  0.1211E+03
 MRCHDU: Convergence failed at  68  side 2    Res =  0.1761E+03
 MRCHDU: Convergence failed at  69  side 2    Res =  0.2954E+03
 MRCHDU: Convergence failed at  70  side 2    Res =  0.9800E+02
 MRCHDU: Convergence failed at  71  side 2    Res =  0.5137E+02
 MRCHDU: Convergence failed at  72  side 2    Res =  0.1566E+03
 MRCHDU: Convergence failed at  73  side 2    Res =  0.1198E+03
 MRCHDU: Convergence failed at  74  side 2    Res =  0.3900E+03
 MRCHDU: Convergence failed at  75  side 2    Res =  0.5856E+02
 MRCHDU: Convergence failed at  76  side 2    Res =  0.4447E+02
 MRCHDU: Convergence failed at  77  side 2    Res =  0.6651E+02
 MRCHDU: Convergence failed at  78  side 2    Res =  0.2466E+02
 Side 1  free  transition at x/c =  0.0739   33
 Side 2  free  transition at x/c =  0.2048   34

  21   rms: 0.1314E+01   max: 0.6151E+01   T at   34  2   RLX: 0.202
       a =  2.000      CL =  0.2741
      Cm = -0.0246     CD =  0.02432   =>   CDf =  0.00739    CDp =  0.01693

 Side 1  free  transition at x/c =  0.0836   34
 Side 2  free  transition at x/c =  0.1932   33

  22   rms: 0.9527E+00   max: 0.1329E+02   T at   33  2   RLX: 0.071
       a =  2.000      CL =  0.4908
      Cm = -0.1061     CD =  0.09113   =>   CDf =  0.00733    CDp =  0.08380

 Side 1  free  transition at x/c =  0.0815   34
 Side 2  free  transition at x/c =  0.1873   33

  23   rms: 0.6565E+00   max: -.4861E+01   T at   34  1   RLX: 0.103
       a =  2.000      CL =  0.4731
      Cm = -0.1042     CD =  0.08343   =>   CDf =  0.00727    CDp =  0.07616

 Side 1  free  transition at x/c =  0.0941   35
 Side 2  free  transition at x/c =  0.1846   33

  24   rms: 0.7308E+00   max: -.7816E+01   C at   35  1   RLX: 0.064
       a =  2.000      CL =  0.4660
      Cm = -0.1067     CD =  0.08502   =>   CDf =  0.00717    CDp =  0.07785

 Side 1  free  transition at x/c =  0.1042   36
 Side 2  free  transition at x/c =  0.1834   33

  25   rms: 0.7741E+00   max: -.9394E+01   C at   36  1   RLX: 0.053
       a =  2.000      CL =  0.4595
      Cm = -0.1088     CD =  0.08359   =>   CDf =  0.00721    CDp =  0.07638
 VISCAL:  Convergence failed
 Calculating wake trajectory ...
 Calculating source influence matrix ...

 Solving BL system ...

 Side 1  free  transition at x/c =  0.1122   36
 Side 2  free  transition at x/c =  0.1827   34

   1   rms: 0.6387E+00   max: -.6131E+01   C at   36  1   RLX: 0.082
       a =  3.000      CL =  0.4493
      Cm = -0.1103     CD =  0.07833   =>   CDf =  0.00710    CDp =  0.07123

 Side 1  free  transition at x/c =  0.1238   37
 Side 2  free  transition at x/c =  0.1820   34

   2   rms: 0.6029E+00   max: -.6948E+01   C at   37  1   RLX: 0.072
       a =  3.000      CL =  0.4390
      Cm = -0.1108     CD =  0.07719   =>   CDf =  0.00704    CDp =  0.07015

 Side 1  free  transition at x/c =  0.1359   38
 Side 2  free  transition at x/c =  0.1813   34

   3   rms: 0.5689E+00   max: -.6486E+01   C at   38  1   RLX: 0.077
       a =  3.000      CL =  0.4264
      Cm = -0.1101     CD =  0.07560   =>   CDf =  0.00697    CDp =  0.06863

 Side 1  free  transition at x/c =  0.1528   39
 Side 2  free  transition at x/c =  0.1808   33

   4   rms: 0.5476E+00   max: -.8950E+01   C at   39  1   RLX: 0.056
       a =  3.000      CL =  0.4275
      Cm = -0.1125     CD =  0.07328   =>   CDf =  0.00684    CDp =  0.06644

 Side 1  free  transition at x/c =  0.1628   39
 Side 2  free  transition at x/c =  0.1796   33

   5   rms: 0.3300E+00   max: 0.3658E+01   T at   33  2   RLX: 0.254
       a =  3.000      CL =  0.4000
      Cm = -0.1026     CD =  0.06763   =>   CDf =  0.00673    CDp =  0.06090

 MRCHDU: Convergence failed at  70  side 1    Res =  0.5142E+01
 MRCHDU: Convergence failed at  71  side 1    Res =  0.4033E+02
 MRCHDU: Convergence failed at  72  side 1    Res =  0.2211E+03
 MRCHDU: Convergence failed at  73  side 1    Res =  0.1506E+02
 MRCHDU: Convergence failed at  74  side 1    Res =  0.6423E+01
 MRCHDU: Convergence failed at  75  side 1    Res =  0.1221E+02
 MRCHDU: Convergence failed at  76  side 1    Res =  0.1044E+03
 MRCHDU: Convergence failed at  77  side 1    Res =  0.9158E+01
 MRCHDU: Convergence failed at  78  side 1    Res =  0.1215E+02
 MRCHDU: Convergence failed at  79  side 1    Res =  0.3977E+03
 MRCHDU: Convergence failed at  80  side 1    Res =  0.1145E+02
 MRCHDU: Convergence failed at  81  side 1    Res =  0.7369E+01
 MRCHDU: Convergence failed at  82  side 1    Res =  0.1082E+02
 MRCHDU: Convergence failed at  83  side 1    Res =  0.1265E+02
 Side 1  free  transition at x/c =  0.7552   70
 Side 2  free  transition at x/c =  0.1744   33

   6   rms: 0.4898E+00   max: 0.3402E+01   D at   83  1   RLX: 0.441
       a =  3.000      CL =  0.5592
      Cm = -0.1711     CD =  0.04430   =>   CDf =  0.00348    CDp =  0.04082

 Side 1  free  transition at x/c =  0.7476   69
 Side 2  free  transition at x/c =  0.1737   33

   7   rms: 0.2631E+00   max: -.8752E+00   D at   79  2   RLX: 0.571
       a =  3.000      CL =  0.6034
      Cm = -0.1583     CD =  0.04028   =>   CDf =  0.00405    CDp =  0.03623

 Side 1  free  transition at x/c =  0.7255   69
 Side 2  free  transition at x/c =  0.1744   32

   8   rms: 0.1923E+00   max: -.9678E+00   D at   78  2   RLX: 0.517
       a =  3.000      CL =  0.6417
      Cm = -0.1636     CD =  0.03623   =>   CDf =  0.00384    CDp =  0.03239

 Side 1  free  transition at x/c =  0.6764   66
 Side 2  free  transition at x/c =  0.1754   32

   9   rms: 0.1564E+00   max: -.9322E+00   D at   78  2   RLX: 0.536
       a =  3.000      CL =  0.6563
      Cm = -0.1663     CD =  0.03338   =>   CDf =  0.00398    CDp =  0.02940

 MRCHDU: Convergence failed at  78  side 1    Res =  0.2436E+01
 MRCHDU: Convergence failed at  79  side 1    Res =  0.3150E+01
 MRCHDU: Convergence failed at  80  side 1    Res =  0.1226E+01
 Side 1  free  transition at x/c =  0.1232   38
 Side 2  free  transition at x/c =  0.1766   32

  10   rms: 0.1830E+00   max: 0.3096E+01   C at   38  1   RLX: 0.485
       a =  3.000      CL =  0.6766
      Cm = -0.1767     CD =  0.03464   =>   CDf =  0.00674    CDp =  0.02790

 Side 1  free  transition at x/c =  0.0970   35
 Side 2  free  transition at x/c =  0.1773   32

  11   rms: 0.1251E+00   max: 0.6531E+00   D at   80  1   RLX: 0.794
       a =  3.000      CL =  0.7062
      Cm = -0.1851     CD =  0.03439   =>   CDf =  0.00688    CDp =  0.02751

 Side 1  free  transition at x/c =  0.0790   33
 Side 2  free  transition at x/c =  0.1822   33

  12   rms: 0.5462E-01   max: -.6122E+00   D at   34  1   RLX: 0.817
       a =  3.000      CL =  0.7388
      Cm = -0.1919     CD =  0.03637   =>   CDf =  0.00706    CDp =  0.02931

 Side 1  free  transition at x/c =  0.0715   32
 Side 2  free  transition at x/c =  0.1835   33

  13   rms: 0.1228E-01   max: -.1695E+00   D at   34  1
       a =  3.000      CL =  0.7362
      Cm = -0.1915     CD =  0.03712   =>   CDf =  0.00714    CDp =  0.02998

 Side 1  free  transition at x/c =  0.0711   32
 Side 2  free  transition at x/c =  0.1837   33

  14   rms: 0.8683E-03   max: -.1221E-01   D at   34  1
       a =  3.000      CL =  0.7364
      Cm = -0.1915     CD =  0.03715   =>   CDf =  0.00713    CDp =  0.03002

 Side 1  free  transition at x/c =  0.0710   32
 Side 2  free  transition at x/c =  0.1837   33

  15   rms: 0.1806E-04   max: -.9247E-04   D at   64  2
       a =  3.000      CL =  0.7364
      Cm = -0.1915     CD =  0.03715   =>   CDf =  0.00713    CDp =  0.03002

 Point added to stored polar  1
 Point written to save file  000253M0.04.log                                 
 Dump file unspecified or not available
 Calculating wake trajectory ...
 Calculating source influence matrix ...

 Solving BL system ...

 Side 1  free  transition at x/c =  0.0710   32
 Side 2  free  transition at x/c =  0.1837   33

   1   rms: 0.1853E+00   max: 0.1831E+01   T at   32  1   RLX: 0.660
       a =  4.000      CL =  0.7662
      Cm = -0.1826     CD =  0.03973   =>   CDf =  0.00696    CDp =  0.03277

 MRCHDU: Convergence failed at  33  side 1    Res =  0.8487E+01
 MRCHDU: Convergence failed at  34  side 1    Res =  0.6759E+01
 MRCHDU: Convergence failed at  35  side 1    Res =  0.3184E+01
 Side 1  free  transition at x/c =  0.0517   30
 Side 2  free  transition at x/c =  0.1853   32

   2   rms: 0.1167E+00   max: -.8718E+00   D at   35  1   RLX: 0.573
       a =  4.000      CL =  0.7752
      Cm = -0.1834     CD =  0.04122   =>   CDf =  0.00701    CDp =  0.03421

 Side 1  free  transition at x/c =  0.0504   30
 Side 2  free  transition at x/c =  0.1869   32

   3   rms: 0.1141E+00   max: -.9632E+00   D at   33  1   RLX: 0.519
       a =  4.000      CL =  0.8011
      Cm = -0.1874     CD =  0.04008   =>   CDf =  0.00705    CDp =  0.03303

 Side 1  free  transition at x/c =  0.0486   30
 Side 2  free  transition at x/c =  0.1895   32

   4   rms: 0.5366E+00   max: 0.3939E+01   T at   32  2   RLX: 0.257
       a =  4.000      CL =  0.6839
      Cm = -0.1558     CD =  0.04522   =>   CDf =  0.00711    CDp =  0.03811

 Side 1  free  transition at x/c =  0.0532   31
 Side 2  free  transition at x/c =  0.1847   32

   5   rms: 0.1778E+00   max: -.9722E+00   D at   33  1   RLX: 0.514
       a =  4.000      CL =  0.7626
      Cm = -0.1783     CD =  0.04110   =>   CDf =  0.00696    CDp =  0.03414

 MRCHDU: Convergence failed at  31  side 1    Res =  0.1317E+02
 MRCHDU: Convergence failed at  32  side 1    Res =  0.9038E+01
 MRCHDU: Convergence failed at  33  side 1    Res =  0.2339E+02
 MRCHDU: Convergence failed at  34  side 1    Res =  0.6110E+01
 MRCHDU: Convergence failed at  35  side 1    Res =  0.5401E+01
 MRCHDU: Convergence failed at  36  side 1    Res =  0.6284E+01
 MRCHDU: Convergence failed at  37  side 1    Res =  0.9254E+01
 MRCHDU: Convergence failed at  38  side 1    Res =  0.1965E+02
 MRCHDU: Convergence failed at  39  side 1    Res =  0.1445E+03
 MRCHDU: Convergence failed at  40  side 1    Res =  0.3527E+02
 MRCHDU: Convergence failed at  41  side 1    Res =  0.1849E+02
 MRCHDU: Convergence failed at  42  side 1    Res =  0.1573E+02
 MRCHDU: Convergence failed at  43  side 1    Res =  0.1749E+02
 MRCHDU: Convergence failed at  44  side 1    Res =  0.3461E+02
 MRCHDU: Convergence failed at  45  side 1    Res =  0.4789E+02
 MRCHDU: Convergence failed at  46  side 1    Res =  0.1099E+02
 MRCHDU: Convergence failed at  47  side 1    Res =  0.5077E+01
 MRCHDU: Convergence failed at  48  side 1    Res =  0.3512E+01
 MRCHDU: Convergence failed at  49  side 1    Res =  0.2420E+01
 MRCHDU: Convergence failed at  50  side 1    Res =  0.1920E+01
 MRCHDU: Convergence failed at  51  side 1    Res =  0.1568E+01
 MRCHDU: Convergence failed at  52  side 1    Res =  0.2216E+01
 MRCHDU: Convergence failed at  53  side 1    Res =  0.2163E+01
 MRCHDU: Convergence failed at  54  side 1    Res =  0.2194E+01
 MRCHDU: Convergence failed at  55  side 1    Res =  0.2799E+01
 MRCHDU: Convergence failed at  56  side 1    Res =  0.2958E+01
 MRCHDU: Convergence failed at  57  side 1    Res =  0.5747E+01
 MRCHDU: Convergence failed at  58  side 1    Res =  0.7179E+01
 MRCHDU: Convergence failed at  59  side 1    Res =  0.8383E+01
 MRCHDU: Convergence failed at  60  side 1    Res =  0.1174E+02
 MRCHDU: Convergence failed at  61  side 1    Res =  0.1823E+02
 MRCHDU: Convergence failed at  62  side 1    Res =  0.2354E+02
 MRCHDU: Convergence failed at  63  side 1    Res =  0.2125E+02
 MRCHDU: Convergence failed at  64  side 1    Res =  0.2008E+02
 MRCHDU: Convergence failed at  65  side 1    Res =  0.1478E+02
 MRCHDU: Convergence failed at  66  side 1    Res =  0.1062E+02
 MRCHDU: Convergence failed at  67  side 1    Res =  0.9494E+01
 MRCHDU: Convergence failed at  68  side 1    Res =  0.9041E+01
 MRCHDU: Convergence failed at  69  side 1    Res =  0.1051E+02
 MRCHDU: Convergence failed at  70  side 1    Res =  0.1570E+02
 MRCHDU: Convergence failed at  71  side 1    Res =  0.4909E+02
 MRCHDU: Convergence failed at  72  side 1    Res =  0.3251E+02
 MRCHDU: Convergence failed at  73  side 1    Res =  0.3876E+02
 MRCHDU: Convergence failed at  74  side 1    Res =  0.1978E+02
 MRCHDU: Convergence failed at  75  side 1    Res =  0.1462E+03
 MRCHDU: Convergence failed at  76  side 1    Res =  0.2102E+02
 MRCHDU: Convergence failed at  77  side 1    Res =  0.2141E+02
 MRCHDU: Convergence failed at  78  side 1    Res =  0.3883E+02
 MRCHDU: Convergence failed at  79  side 1    Res =  0.1292E+02
 MRCHDU: Convergence failed at  80  side 1    Res =  0.2103E+02
 MRCHDU: Convergence failed at  81  side 1    Res =  0.5533E+02
 MRCHDU: Convergence failed at  82  side 1    Res =  0.1504E+03
 MRCHDU: Convergence failed at  83  side 1    Res =  0.3806E+02
 MRCHDU: Convergence failed at  84  side 1    Res =  0.2439E+02
 MRCHDU: Convergence failed at  85  side 1    Res =  0.2356E+02
 Side 1  free  transition at x/c =  0.0512   30
 Side 2  free  transition at x/c =  0.1894   32

   6   rms: 0.7453E+00   max: 0.5468E+01   D at   85  1   RLX: 0.229
       a =  4.000      CL =  1.1175
      Cm = -0.3132     CD =  0.02882   =>   CDf =  0.00111    CDp =  0.02770

 Side 1  free  transition at x/c =  0.0561   31
 Side 2  free  transition at x/c =  0.1867   32

   7   rms: 0.2123E+00   max: -.3432E+00   D at   77  2   RLX: 0.597
       a =  4.000      CL =  0.9095
      Cm = -0.2275     CD =  0.03896   =>   CDf =  0.00804    CDp =  0.03093

 Side 1  free  transition at x/c =  0.0495   30
 Side 2  free  transition at x/c =  0.1902   32

   8   rms: 0.3250E+00   max: 0.2083E+01   T at   32  2   RLX: 0.619
       a =  4.000      CL =  0.7030
      Cm = -0.1610     CD =  0.04597   =>   CDf =  0.00744    CDp =  0.03853

 Side 1  free  transition at x/c =  0.0567   31
 Side 2  free  transition at x/c =  0.1879   32

   9   rms: 0.3386E+00   max: 0.1818E+01   T at   31  1   RLX: 0.412
       a =  4.000      CL =  0.8407
      Cm = -0.1946     CD =  0.03635   =>   CDf =  0.00689    CDp =  0.02947

 MRCHDU: Convergence failed at  31  side 1    Res =  0.1407E+02
 MRCHDU: Convergence failed at  32  side 1    Res =  0.1175E+02
 MRCHDU: Convergence failed at  33  side 1    Res =  0.9227E+01
 MRCHDU: Convergence failed at  34  side 1    Res =  0.6564E+01
 MRCHDU: Convergence failed at  35  side 1    Res =  0.3453E+01
 MRCHDU: Convergence failed at  36  side 1    Res =  0.3604E+01
 MRCHDU: Convergence failed at  37  side 1    Res =  0.4405E+01
 MRCHDU: Convergence failed at  38  side 1    Res =  0.5977E+01
 MRCHDU: Convergence failed at  39  side 1    Res =  0.9533E+01
 MRCHDU: Convergence failed at  40  side 1    Res =  0.2365E+02
 MRCHDU: Convergence failed at  41  side 1    Res =  0.4979E+02
 MRCHDU: Convergence failed at  42  side 1    Res =  0.4577E+02
 MRCHDU: Convergence failed at  43  side 1    Res =  0.1047E+03
 MRCHDU: Convergence failed at  44  side 1    Res =  0.1930E+03
 MRCHDU: Convergence failed at  45  side 1    Res =  0.1153E+02
 MRCHDU: Convergence failed at  46  side 1    Res =  0.6516E+01
 MRCHDU: Convergence failed at  47  side 1    Res =  0.4276E+01
 MRCHDU: Convergence failed at  48  side 1    Res =  0.2995E+01
 MRCHDU: Convergence failed at  49  side 1    Res =  0.2275E+01
 MRCHDU: Convergence failed at  50  side 1    Res =  0.1676E+01
 MRCHDU: Convergence failed at  51  side 1    Res =  0.1344E+01
 MRCHDU: Convergence failed at  52  side 1    Res =  0.2202E+01
 MRCHDU: Convergence failed at  53  side 1    Res =  0.1950E+01
 MRCHDU: Convergence failed at  54  side 1    Res =  0.3537E+01
 MRCHDU: Convergence failed at  55  side 1    Res =  0.1683E+02
 MRCHDU: Convergence failed at  56  side 1    Res =  0.2097E+02
 Side 1  free  transition at x/c =  0.0482   30
 Side 2  free  transition at x/c =  0.1961   33

  10   rms: 0.3334E+00   max: 0.3077E+01   T at   30  1   RLX: 0.418
       a =  4.000      CL =  0.9985
      Cm = -0.2051     CD =  0.03312   =>   CDf =  0.00392    CDp =  0.02920

 MRCHDU: Convergence failed at  31  side 1    Res =  0.4017E+03
 MRCHDU: Convergence failed at  32  side 1    Res =  0.5757E+01
 Side 1  free  transition at x/c =  0.0413   29
 Side 2  free  transition at x/c =  0.1992   32

  11   rms: 0.2252E+00   max: -.1172E+01   D at   38  1   RLX: 0.427
       a =  4.000      CL =  0.9360
      Cm = -0.2108     CD =  0.03892   =>   CDf =  0.00840    CDp =  0.03052

 Side 1  free  transition at x/c =  0.0449   30
 Side 2  free  transition at x/c =  0.1996   32

  12   rms: 0.1031E+00   max: -.7363E+00   D at   36  1   RLX: 0.679
       a =  4.000      CL =  0.9232
      Cm = -0.2146     CD =  0.03681   =>   CDf =  0.00753    CDp =  0.02928

 Side 1  free  transition at x/c =  0.0428   30
 Side 2  free  transition at x/c =  0.2007   32

  13   rms: 0.4589E-01   max: -.4504E+00   D at   32  1
       a =  4.000      CL =  0.9174
      Cm = -0.2165     CD =  0.03666   =>   CDf =  0.00756    CDp =  0.02910

 Side 1  free  transition at x/c =  0.0418   29
 Side 2  free  transition at x/c =  0.2021   32

  14   rms: 0.2617E-01   max: 0.1885E+00   D at   30  1
       a =  4.000      CL =  0.9021
      Cm = -0.2124     CD =  0.03741   =>   CDf =  0.00758    CDp =  0.02983

 Side 1  free  transition at x/c =  0.0418   29
 Side 2  free  transition at x/c =  0.2001   32

  15   rms: 0.1588E-01   max: -.8208E-01   T at   32  2
       a =  4.000      CL =  0.9116
      Cm = -0.2148     CD =  0.03694   =>   CDf =  0.00753    CDp =  0.02941

 Side 1  free  transition at x/c =  0.0413   29
 Side 2  free  transition at x/c =  0.2013   32

  16   rms: 0.1758E-01   max: -.1009E+00   T at   32  2
       a =  4.000      CL =  0.9223
      Cm = -0.2176     CD =  0.03660   =>   CDf =  0.00756    CDp =  0.02905

 Side 1  free  transition at x/c =  0.0408   29
 Side 2  free  transition at x/c =  0.2028   32

  17   rms: 0.1177E-01   max: 0.7701E-01   T at   32  2
       a =  4.000      CL =  0.9145
      Cm = -0.2156     CD =  0.03697   =>   CDf =  0.00759    CDp =  0.02938

 Side 1  free  transition at x/c =  0.0412   29
 Side 2  free  transition at x/c =  0.2017   32

  18   rms: 0.8153E-01   max: -.4840E+00   T at   32  2
       a =  4.000      CL =  0.9652
      Cm = -0.2286     CD =  0.03505   =>   CDf =  0.00756    CDp =  0.02749

 Side 1  free  transition at x/c =  0.0386   29
 Side 2  free  transition at x/c =  0.2093   32

  19   rms: 0.6707E-01   max: -.3077E+00   T at   33  2
       a =  4.000      CL =  0.9498
      Cm = -0.2248     CD =  0.03543   =>   CDf =  0.00777    CDp =  0.02767

 Side 1  free  transition at x/c =  0.0395   29
 Side 2  free  transition at x/c =  0.2073   32

  20   rms: 0.2603E-01   max: 0.1926E+00   T at   32  2
       a =  4.000      CL =  0.9346
      Cm = -0.2208     CD =  0.03622   =>   CDf =  0.00766    CDp =  0.02856

 Side 1  free  transition at x/c =  0.0402   29
 Side 2  free  transition at x/c =  0.2047   32

  21   rms: 0.1313E-01   max: 0.1106E+00   T at   32  2
       a =  4.000      CL =  0.9234
      Cm = -0.2179     CD =  0.03669   =>   CDf =  0.00763    CDp =  0.02906

 Side 1  free  transition at x/c =  0.0407   29
 Side 2  free  transition at x/c =  0.2030   32

  22   rms: 0.1159E-01   max: 0.7811E-01   T at   32  2
       a =  4.000      CL =  0.9156
      Cm = -0.2158     CD =  0.03693   =>   CDf =  0.00759    CDp =  0.02934

 Side 1  free  transition at x/c =  0.0411   29
 Side 2  free  transition at x/c =  0.2018   32

  23   rms: 0.1163E+00   max: 0.6979E+00   T at   32  2
       a =  4.000      CL =  0.8416
      Cm = -0.1967     CD =  0.03957   =>   CDf =  0.00780    CDp =  0.03176

 Side 1  free  transition at x/c =  0.0446   29
 Side 2  free  transition at x/c =  0.1950   33

  24   rms: 0.9638E-01   max: -.4872E+00   T at   33  2
       a =  4.000      CL =  0.8734
      Cm = -0.2046     CD =  0.03701   =>   CDf =  0.00703    CDp =  0.02998

 Side 1  free  transition at x/c =  0.0429   30
 Side 2  free  transition at x/c =  0.1968   32

  25   rms: 0.6003E-01   max: -.2754E+00   D at   67  2
       a =  4.000      CL =  0.8906
      Cm = -0.2093     CD =  0.03711   =>   CDf =  0.00739    CDp =  0.02972
 VISCAL:  Convergence failed
 Calculating wake trajectory ...
 Calculating source influence matrix ...

 Solving BL system ...

 Side 1  free  transition at x/c =  0.0423   29
 Side 2  free  transition at x/c =  0.1984   32

   1   rms: 0.1609E+00   max: 0.1675E+01   T at   29  1   RLX: 0.393
       a =  5.000      CL =  0.9161
      Cm = -0.2053     CD =  0.03908   =>   CDf =  0.00751    CDp =  0.03157

 Side 1  free  transition at x/c =  0.0374   28
 Side 2  free  transition at x/c =  0.2000   32

   2   rms: 0.1229E+00   max: 0.1324E+01   T at   28  1   RLX: 0.533
       a =  5.000      CL =  0.9496
      Cm = -0.2066     CD =  0.04008   =>   CDf =  0.00754    CDp =  0.03254

 Side 1  free  transition at x/c =  0.0342   28
 Side 2  free  transition at x/c =  0.2043   32

   3   rms: 0.1296E+00   max: 0.8649E+00   T at   32  2   RLX: 0.977
       a =  5.000      CL =  0.8591
      Cm = -0.1784     CD =  0.04452   =>   CDf =  0.00746    CDp =  0.03707

 Side 1  free  transition at x/c =  0.0359   28
 Side 2  free  transition at x/c =  0.1971   32

   4   rms: 0.9350E-01   max: -.4095E+00   T at   32  2
       a =  5.000      CL =  0.9271
      Cm = -0.1936     CD =  0.04087   =>   CDf =  0.00690    CDp =  0.03397

 Side 1  free  transition at x/c =  0.0340   29
 Side 2  free  transition at x/c =  0.2017   31

   5   rms: 0.1074E+00   max: -.6566E+00   T at   31  2   RLX: 0.762
       a =  5.000      CL =  0.9848
      Cm = -0.2085     CD =  0.04008   =>   CDf =  0.00736    CDp =  0.03271

 Side 1  free  transition at x/c =  0.0331   28
 Side 2  free  transition at x/c =  0.2092   31

   6   rms: 0.7717E-01   max: -.4244E+00   T at   32  2
       a =  5.000      CL =  0.9713
      Cm = -0.2051     CD =  0.04028   =>   CDf =  0.00754    CDp =  0.03275

 Side 1  free  transition at x/c =  0.0332   28
 Side 2  free  transition at x/c =  0.2070   31

   7   rms: 0.4299E-01   max: 0.3754E+00   T at   31  2
       a =  5.000      CL =  0.9358
      Cm = -0.1963     CD =  0.04174   =>   CDf =  0.00748    CDp =  0.03426

 Side 1  free  transition at x/c =  0.0342   29
 Side 2  free  transition at x/c =  0.2023   31

   8   rms: 0.1292E+00   max: -.7690E+00   T at   31  2   RLX: 0.650
       a =  5.000      CL =  0.9871
      Cm = -0.2092     CD =  0.04028   =>   CDf =  0.00734    CDp =  0.03294

 Side 1  free  transition at x/c =  0.0330   28
 Side 2  free  transition at x/c =  0.2095   32

   9   rms: 0.1176E+00   max: -.6745E+00   T at   32  2   RLX: 0.741
       a =  5.000      CL =  1.0097
      Cm = -0.2143     CD =  0.03996   =>   CDf =  0.00753    CDp =  0.03243

 Side 1  free  transition at x/c =  0.0322   28
 Side 2  free  transition at x/c =  0.2114   32

  10   rms: 0.9663E-01   max: -.4118E+00   D at   64  2
       a =  5.000      CL =  1.0382
      Cm = -0.2215     CD =  0.03866   =>   CDf =  0.00754    CDp =  0.03111

 Side 1  free  transition at x/c =  0.0312   28
 Side 2  free  transition at x/c =  0.2145   32

  11   rms: 0.1706E+00   max: -.9034E+00   T at   32  2   RLX: 0.553
       a =  5.000      CL =  1.0828
      Cm = -0.2325     CD =  0.03816   =>   CDf =  0.00771    CDp =  0.03045

 Side 1  free  transition at x/c =  0.0300   28
 Side 2  free  transition at x/c =  0.2232   32

  12   rms: 0.6332E-01   max: 0.5709E+00   T at   32  2
       a =  5.000      CL =  1.0477
      Cm = -0.2242     CD =  0.03858   =>   CDf =  0.00796    CDp =  0.03062

 Side 1  free  transition at x/c =  0.0309   28
 Side 2  free  transition at x/c =  0.2170   32

  13   rms: 0.6280E+00   max: 0.3583E+01   T at   32  2   RLX: 0.285
       a =  5.000      CL =  0.9324
      Cm = -0.1953     CD =  0.04359   =>   CDf =  0.00771    CDp =  0.03587

 Side 1  free  transition at x/c =  0.0333   28
 Side 2  free  transition at x/c =  0.2077   31

  14   rms: 0.1647E+00   max: 0.2049E+01   T at   31  2   RLX: 0.444
       a =  5.000      CL =  0.8910
      Cm = -0.1837     CD =  0.04534   =>   CDf =  0.00778    CDp =  0.03756

 Side 1  free  transition at x/c =  0.0352   28
 Side 2  free  transition at x/c =  0.2009   32

  15   rms: 0.1322E+00   max: -.1024E+01   D at    2  2   RLX: 0.488
       a =  5.000      CL =  0.9184
      Cm = -0.1913     CD =  0.04266   =>   CDf =  0.00695    CDp =  0.03572

 Side 1  free  transition at x/c =  0.0344   29
 Side 2  free  transition at x/c =  0.2026   31

  16   rms: 0.1227E+00   max: -.5874E+00   T at   31  2   RLX: 0.851
       a =  5.000      CL =  0.9894
      Cm = -0.2099     CD =  0.03995   =>   CDf =  0.00730    CDp =  0.03265

 Side 1  free  transition at x/c =  0.0329   28
 Side 2  free  transition at x/c =  0.2097   32

  17   rms: 0.8729E-01   max: -.5593E+00   T at   32  2   RLX: 0.894
       a =  5.000      CL =  1.0206
      Cm = -0.2171     CD =  0.03932   =>   CDf =  0.00759    CDp =  0.03173

 Side 1  free  transition at x/c =  0.0318   28
 Side 2  free  transition at x/c =  0.2126   32

  18   rms: 0.9363E-01   max: -.4145E+00   T at   32  2
       a =  5.000      CL =  1.0551
      Cm = -0.2257     CD =  0.03830   =>   CDf =  0.00761    CDp =  0.03069

 Side 1  free  transition at x/c =  0.0307   28
 Side 2  free  transition at x/c =  0.2178   32

  19   rms: 0.1589E+00   max: 0.9152E+00   T at   32  2
       a =  5.000      CL =  0.9624
      Cm = -0.2027     CD =  0.04141   =>   CDf =  0.00780    CDp =  0.03361

 Side 1  free  transition at x/c =  0.0329   28
 Side 2  free  transition at x/c =  0.2086   31

  20   rms: 0.8949E-01   max: 0.5524E+00   T at   31  2
       a =  5.000      CL =  0.9432
      Cm = -0.1997     CD =  0.04151   =>   CDf =  0.00752    CDp =  0.03399

 Side 1  free  transition at x/c =  0.0343   29
 Side 2  free  transition at x/c =  0.2047   31

  21   rms: 0.1853E+00   max: 0.1638E+01   T at   31  2   RLX: 0.916
       a =  5.000      CL =  0.7987
      Cm = -0.1603     CD =  0.04549   =>   CDf =  0.00758    CDp =  0.03791

 Side 1  free  transition at x/c =  0.0378   29
 Side 2  free  transition at x/c =  0.1976   32

  22   rms: 0.1733E+00   max: 0.1089E+01   T at   29  1   RLX: 0.946
       a =  5.000      CL =  0.9276
      Cm = -0.1943     CD =  0.03972   =>   CDf =  0.00684    CDp =  0.03288

 MRCHDU: Convergence failed at  30  side 1    Res =  0.1259E+02
 MRCHDU: Convergence failed at  31  side 1    Res =  0.7652E+03
 MRCHDU: Convergence failed at  32  side 1    Res =  0.9219E+01
 MRCHDU: Convergence failed at  33  side 1    Res =  0.1126E+02
 MRCHDU: Convergence failed at  34  side 1    Res =  0.1695E+02
 MRCHDU: Convergence failed at  35  side 1    Res =  0.5792E+02
 MRCHDU: Convergence failed at  36  side 1    Res =  0.1110E+03
 MRCHDU: Convergence failed at  37  side 1    Res =  0.2907E+02
 MRCHDU: Convergence failed at  38  side 1    Res =  0.1848E+02
 MRCHDU: Convergence failed at  39  side 1    Res =  0.1443E+02
 MRCHDU: Convergence failed at  40  side 1    Res =  0.1237E+02
 MRCHDU: Convergence failed at  41  side 1    Res =  0.1089E+02
 MRCHDU: Convergence failed at  42  side 1    Res =  0.1046E+02
 MRCHDU: Convergence failed at  43  side 1    Res =  0.9304E+01
 MRCHDU: Convergence failed at  44  side 1    Res =  0.1098E+02
 MRCHDU: Convergence failed at  45  side 1    Res =  0.1291E+02
 MRCHDU: Convergence failed at  46  side 1    Res =  0.1424E+02
 MRCHDU: Convergence failed at  47  side 1    Res =  0.1345E+02
 MRCHDU: Convergence failed at  48  side 1    Res =  0.1146E+02
 MRCHDU: Convergence failed at  49  side 1    Res =  0.9980E+01
 MRCHDU: Convergence failed at  50  side 1    Res =  0.8549E+01
 MRCHDU: Convergence failed at  51  side 1    Res =  0.7320E+01
 MRCHDU: Convergence failed at  52  side 1    Res =  0.7698E+01
 MRCHDU: Convergence failed at  53  side 1    Res =  0.7764E+01
 MRCHDU: Convergence failed at  54  side 1    Res =  0.8125E+01
 MRCHDU: Convergence failed at  55  side 1    Res =  0.8672E+01
 MRCHDU: Convergence failed at  56  side 1    Res =  0.9525E+01
 MRCHDU: Convergence failed at  57  side 1    Res =  0.1083E+02
 MRCHDU: Convergence failed at  58  side 1    Res =  0.1318E+02
 MRCHDU: Convergence failed at  59  side 1    Res =  0.1612E+02
 MRCHDU: Convergence failed at  60  side 1    Res =  0.2188E+02
 MRCHDU: Convergence failed at  61  side 1    Res =  0.3129E+02
 MRCHDU: Convergence failed at  62  side 1    Res =  0.6307E+02
 MRCHDU: Convergence failed at  63  side 1    Res =  0.6760E+02
 MRCHDU: Convergence failed at  64  side 1    Res =  0.3329E+02
 MRCHDU: Convergence failed at  65  side 1    Res =  0.1867E+02
 MRCHDU: Convergence failed at  66  side 1    Res =  0.5462E+02
 MRCHDU: Convergence failed at  67  side 1    Res =  0.3964E+02
 MRCHDU: Convergence failed at  68  side 1    Res =  0.3125E+02
 MRCHDU: Convergence failed at  69  side 1    Res =  0.1144E+02
 MRCHDU: Convergence failed at  70  side 1    Res =  0.1380E+02
 MRCHDU: Convergence failed at  71  side 1    Res =  0.1804E+02
 MRCHDU: Convergence failed at  72  side 1    Res =  0.2081E+02
 MRCHDU: Convergence failed at  73  side 1    Res =  0.3392E+02
 MRCHDU: Convergence failed at  74  side 1    Res =  0.4025E+02
 MRCHDU: Convergence failed at  75  side 1    Res =  0.4996E+02
 MRCHDU: Convergence failed at  76  side 1    Res =  0.3415E+02
 MRCHDU: Convergence failed at  77  side 1    Res =  0.8112E+02
 MRCHDU: Convergence failed at  78  side 1    Res =  0.1079E+03
 MRCHDU: Convergence failed at  79  side 1    Res =  0.6052E+02
 MRCHDU: Convergence failed at  80  side 1    Res =  0.8462E+02
 MRCHDU: Convergence failed at  81  side 1    Res =  0.8061E+02
 MRCHDU: Convergence failed at  82  side 1    Res =  0.1545E+04
 MRCHDU: Convergence failed at  83  side 1    Res =  0.2590E+02
 MRCHDU: Convergence failed at  84  side 1    Res =  0.7701E+02
 MRCHDU: Convergence failed at  85  side 1    Res =  0.7412E+02
 MRCHDU: Convergence failed at  86  side 1    Res =  0.7742E+02
 MRCHDU: Convergence failed at  87  side 1    Res =  0.5739E+04
 Side 1  free  transition at x/c =  0.0347   29
 Side 2  free  transition at x/c =  0.2064   31

  23   rms: 0.1113E+01   max: 0.5326E+01   D at   87  1   RLX: 0.154
       a =  5.000      CL =  1.8479
      Cm = -0.5018     CD =  0.02094   =>   CDf =  0.00137    CDp =  0.01958

 MRCHDU: Convergence failed at  43  side 1    Res =  0.4657E+00
 MRCHDU: Convergence failed at  44  side 1    Res =  0.4718E+00
 MRCHDU: Convergence failed at  45  side 1    Res =  0.4788E+00
 MRCHDU: Convergence failed at  46  side 1    Res =  0.4880E+00
 MRCHDU: Convergence failed at  47  side 1    Res =  0.4979E+00
 MRCHDU: Convergence failed at  48  side 1    Res =  0.5086E+00
 MRCHDU: Convergence failed at  49  side 1    Res =  0.5196E+00
 MRCHDU: Convergence failed at  50  side 1    Res =  0.5307E+00
 MRCHDU: Convergence failed at  51  side 1    Res =  0.5412E+00
 MRCHDU: Convergence failed at  52  side 1    Res =  0.5508E+00
 MRCHDU: Convergence failed at  53  side 1    Res =  0.5578E+00
 MRCHDU: Convergence failed at  54  side 1    Res =  0.5635E+00
 MRCHDU: Convergence failed at  55  side 1    Res =  0.5672E+00
 MRCHDU: Convergence failed at  56  side 1    Res =  0.5685E+00
 MRCHDU: Convergence failed at  57  side 1    Res =  0.5672E+00
 MRCHDU: Convergence failed at  58  side 1    Res =  0.5626E+00
 MRCHDU: Convergence failed at  59  side 1    Res =  0.5542E+00
 MRCHDU: Convergence failed at  60  side 1    Res =  0.5410E+00
 MRCHDU: Convergence failed at  61  side 1    Res =  0.5217E+00
 MRCHDU: Convergence failed at  62  side 1    Res =  0.4934E+00
 MRCHDU: Convergence failed at  63  side 1    Res =  0.4516E+00
 MRCHDU: Convergence failed at  64  side 1    Res =  0.3872E+00
 MRCHDU: Convergence failed at  65  side 1    Res =  0.2590E+00
 Side 1  free  transition at x/c =  0.0331   28
 Side 2  free  transition at x/c =  0.2171   32

  24   rms: 0.1167E+01   max: -.5117E+01   D at   56  2   RLX: 0.098
       a =  5.000      CL =  1.3093
      Cm = -0.3900     CD =  0.06428   =>   CDf =  0.00247    CDp =  0.06181

 MRCHDU: Convergence failed at  66  side 1    Res =  0.9208E+00
 MRCHDU: Convergence failed at  67  side 1    Res =  0.1775E+01
 MRCHDU: Convergence failed at  68  side 1    Res =  0.1292E+01
 MRCHDU: Convergence failed at  69  side 1    Res =  0.1248E+01
 MRCHDU: Convergence failed at  70  side 1    Res =  0.1197E+01
 MRCHDU: Convergence failed at  71  side 1    Res =  0.1143E+01
 MRCHDU: Convergence failed at  72  side 1    Res =  0.1086E+01
 MRCHDU: Convergence failed at  73  side 1    Res =  0.1026E+01
 MRCHDU: Convergence failed at  74  side 1    Res =  0.9604E+00
 MRCHDU: Convergence failed at  75  side 1    Res =  0.8886E+00
 MRCHDU: Convergence failed at  76  side 1    Res =  0.8077E+00
 MRCHDU: Convergence failed at  77  side 1    Res =  0.7115E+00
 MRCHDU: Convergence failed at  78  side 1    Res =  0.5844E+00
 MRCHDU: Convergence failed at  79  side 1    Res =  0.3557E+00
 MRCHDU: Convergence failed at  81  side 1    Res =  0.2371E+00
 MRCHDU: Convergence failed at  82  side 1    Res =  0.1905E+00
 MRCHDU: Convergence failed at  83  side 1    Res =  0.3177E-01
 Side 1  free  transition at x/c =  0.0328   28
 Side 2  free  transition at x/c =  0.2245   32

  25   rms: 0.2098E+03   max: -.1043E+04   D at   56  2   RLX: 0.000
       a =  5.000      CL =  0.9363
      Cm = -0.2290     CD =  0.08416   =>   CDf =  0.00244    CDp =  0.08172
 VISCAL:  Convergence failed
 Calculating wake trajectory ...
 Calculating source influence matrix ...

 Solving BL system ...

 MRCHDU: Convergence failed at  83  side 1    Res =  0.2388E+00
 Side 1  free  transition at x/c =  0.0330   28
 Side 2  free  transition at x/c =  0.2247   32

   1   rms: 0.2132E+01   max: -.1074E+02   D at   56  2   RLX: 0.047
       a =  6.000      CL =  0.9120
      Cm = -0.2125     CD =  0.12114   =>   CDf =  0.00248    CDp =  0.11866

 Side 1  free  transition at x/c =  0.0316   27
 Side 2  free  transition at x/c =  0.2271   34

   2   rms: 0.8736E+00   max: -.2680E+01   D at   57  2   RLX: 0.187
       a =  6.000      CL =  0.9458
      Cm = -0.2019     CD =  0.10161   =>   CDf =  0.00236    CDp =  0.09925

 MRCHDU: Convergence failed at  46  side 2    Res =  0.1009E+02
 MRCHDU: Convergence failed at  47  side 2    Res =  0.2819E+02
 MRCHDU: Convergence failed at  48  side 2    Res =  0.3264E+02
 MRCHDU: Convergence failed at  49  side 2    Res =  0.9035E+01
 MRCHDU: Convergence failed at  50  side 2    Res =  0.5805E+01
 MRCHDU: Convergence failed at  51  side 2    Res =  0.4101E+01
 MRCHDU: Convergence failed at  52  side 2    Res =  0.3044E+01
 MRCHDU: Convergence failed at  53  side 2    Res =  0.2418E+01
 MRCHDU: Convergence failed at  54  side 2    Res =  0.1994E+01
 MRCHDU: Convergence failed at  55  side 2    Res =  0.2516E+01
 Side 1  free  transition at x/c =  0.0292   27
 Side 2  free  transition at x/c =  0.2372   33

   3   rms: 0.1256E+01   max: 0.4801E+01   D at   28  1   RLX: 0.156
       a =  6.000      CL =  0.8540
      Cm = -0.1963     CD =  0.13416   =>   CDf =  0.00237    CDp =  0.13179

 Side 1  free  transition at x/c =  0.0299   27
 Side 2  free  transition at x/c =  0.2295   34

   4   rms: 0.1405E+01   max: -.1624E+02   T at   27  1   RLX: 0.031
       a =  6.000      CL =  0.7678
      Cm = -0.1835     CD =  0.13561   =>   CDf =  0.00242    CDp =  0.13319

 Side 1  free  transition at x/c =  0.0323   27
 Side 2  free  transition at x/c =  0.2286   34

   5   rms: 0.5543E+00   max: 0.5602E+01   T at   27  1   RLX: 0.195
       a =  6.000      CL =  0.8333
      Cm = -0.1875     CD =  0.11817   =>   CDf =  0.00244    CDp =  0.11573

 Side 1  free  transition at x/c =  0.0304   27
 Side 2  free  transition at x/c =  0.2320   34

   6   rms: 0.5359E+00   max: -.7460E+01   T at   27  1   RLX: 0.067
       a =  6.000      CL =  0.8636
      Cm = -0.1939     CD =  0.13111   =>   CDf =  0.00232    CDp =  0.12879

 Side 1  free  transition at x/c =  0.0332   27
 Side 2  free  transition at x/c =  0.2321   34

   7   rms: 0.5211E+00   max: -.2125E+01   T at   28  1   RLX: 0.235
       a =  6.000      CL =  0.9340
      Cm = -0.1952     CD =  0.11375   =>   CDf =  0.00220    CDp =  0.11154

 Side 1  free  transition at x/c =  0.0345   29
 Side 2  free  transition at x/c =  0.2370   33

   8   rms: 0.7485E+00   max: -.3433E+01   T at   29  1   RLX: 0.146
       a =  6.000      CL =  0.9876
      Cm = -0.1865     CD =  0.11029   =>   CDf =  0.00227    CDp =  0.10802

 Side 1  free  transition at x/c =  0.0349   29
 Side 2  free  transition at x/c =  0.2415   34

   9   rms: 0.9778E+00   max: -.2769E+01   D at   64  1   RLX: 0.181
       a =  6.000      CL =  1.0967
      Cm = -0.1761     CD =  0.09730   =>   CDf =  0.00234    CDp =  0.09496

 MRCHDU: Convergence failed at  44  side 2    Res =  0.1282E+01
 MRCHDU: Convergence failed at  45  side 2    Res =  0.1656E+01
 MRCHDU: Convergence failed at  46  side 2    Res =  0.2290E+01
 MRCHDU: Convergence failed at  47  side 2    Res =  0.3818E+01
 MRCHDU: Convergence failed at  48  side 2    Res =  0.1582E+02
 MRCHDU: Convergence failed at  49  side 2    Res =  0.6617E+01
 MRCHDU: Convergence failed at  50  side 2    Res =  0.3490E+01
 MRCHDU: Convergence failed at  51  side 2    Res =  0.2650E+01
 MRCHDU: Convergence failed at  52  side 2    Res =  0.2366E+01
 MRCHDU: Convergence failed at  53  side 2    Res =  0.2234E+01
 MRCHDU: Convergence failed at  54  side 2    Res =  0.2235E+01
 Side 1  free  transition at x/c =  0.0354   30
 Side 2  free  transition at x/c =  0.2561   33

  10   rms: 0.1235E+01   max: -.4876E+01   D at   40  2   RLX: 0.103
       a =  6.000      CL =  1.1825
      Cm = -0.1862     CD =  0.10242   =>   CDf =  0.00225    CDp =  0.10017

 MRCHDU: Convergence failed at  34  side 2    Res =  0.1587E+02
 MRCHDU: Convergence failed at  35  side 2    Res =  0.1138E+02
 MRCHDU: Convergence failed at  36  side 2    Res =  0.8885E+01
 MRCHDU: Convergence failed at  37  side 2    Res =  0.1485E+02
 MRCHDU: Convergence failed at  38  side 2    Res =  0.2281E+02
 MRCHDU: Convergence failed at  39  side 2    Res =  0.2243E+02
 MRCHDU: Convergence failed at  40  side 2    Res =  0.1650E+02
 MRCHDU: Convergence failed at  41  side 2    Res =  0.2380E+02
 MRCHDU: Convergence failed at  42  side 2    Res =  0.4544E+02
 MRCHDU: Convergence failed at  43  side 2    Res =  0.1128E+03
 MRCHDU: Convergence failed at  44  side 2    Res =  0.1712E+03
 MRCHDU: Convergence failed at  45  side 2    Res =  0.4175E+03
 MRCHDU: Convergence failed at  46  side 2    Res =  0.9516E+02
 MRCHDU: Convergence failed at  47  side 2    Res =  0.5080E+02
 MRCHDU: Convergence failed at  48  side 2    Res =  0.3221E+02
 MRCHDU: Convergence failed at  49  side 2    Res =  0.2433E+02
 MRCHDU: Convergence failed at  50  side 2    Res =  0.1945E+02
 MRCHDU: Convergence failed at  51  side 2    Res =  0.1627E+02
 MRCHDU: Convergence failed at  52  side 2    Res =  0.1898E+02
 MRCHDU: Convergence failed at  53  side 2    Res =  0.2233E+02
 MRCHDU: Convergence failed at  54  side 2    Res =  0.2535E+02
 MRCHDU: Convergence failed at  55  side 2    Res =  0.8144E+02
 MRCHDU: Convergence failed at  56  side 2    Res =  0.3848E+02
 MRCHDU: Convergence failed at  57  side 2    Res =  0.2075E+02
 MRCHDU: Convergence failed at  58  side 2    Res =  0.1684E+02
 MRCHDU: Convergence failed at  59  side 2    Res =  0.1781E+02
 MRCHDU: Convergence failed at  60  side 2    Res =  0.1822E+02
 MRCHDU: Convergence failed at  61  side 2    Res =  0.1825E+02
 MRCHDU: Convergence failed at  62  side 2    Res =  0.4229E+02
 MRCHDU: Convergence failed at  63  side 2    Res =  0.1697E+03
 MRCHDU: Convergence failed at  64  side 2    Res =  0.8042E+02
 MRCHDU: Convergence failed at  65  side 2    Res =  0.3459E+02
 MRCHDU: Convergence failed at  66  side 2    Res =  0.2159E+02
 MRCHDU: Convergence failed at  67  side 2    Res =  0.1535E+02
 MRCHDU: Convergence failed at  68  side 2    Res =  0.1739E+02
 MRCHDU: Convergence failed at  69  side 2    Res =  0.2515E+02
 MRCHDU: Convergence failed at  70  side 2    Res =  0.4587E+02
 MRCHDU: Convergence failed at  71  side 2    Res =  0.4404E+03
 MRCHDU: Convergence failed at  72  side 2    Res =  0.4040E+02
 MRCHDU: Convergence failed at  73  side 2    Res =  0.2706E+02
 Side 1  free  transition at x/c =  0.0355   30
 Side 2  free  transition at x/c =  0.2686   34

  11   rms: 0.9146E+00   max: 0.2365E+01   T at   52  2   RLX: 0.251
       a =  6.000      CL =  0.9861
      Cm = -0.0751     CD =  0.08428   =>   CDf =  0.00167    CDp =  0.08261

 MRCHDU: Convergence failed at  50  side 2    Res =  0.1772E+01
 MRCHDU: Convergence failed at  51  side 2    Res =  0.4744E+00
 MRCHDU: Convergence failed at  53  side 2    Res =  0.2935E+00
 Side 1  free  transition at x/c =  0.0357   31
 Side 2  free  transition at x/c =  0.2639   33

  12   rms: 0.5287E+00   max: -.9276E+00   D at   91  2   RLX: 0.346
       a =  6.000      CL =  1.2577
      Cm = -0.1531     CD =  0.07828   =>   CDf =  0.00563    CDp =  0.07265

 Side 1  free  transition at x/c =  0.0359   31
 Side 2  free  transition at x/c =  0.2669   33

  13   rms: 0.3739E+00   max: -.1204E+01   D at   42  2   RLX: 0.415
       a =  6.000      CL =  1.3905
      Cm = -0.2071     CD =  0.06985   =>   CDf =  0.00557    CDp =  0.06428

 Side 1  free  transition at x/c =  0.0367   32
 Side 2  free  transition at x/c =  0.2669   32

  14   rms: 0.2684E+00   max: -.7991E+00   D at   42  2   RLX: 0.626
       a =  6.000      CL =  1.4495
      Cm = -0.2484     CD =  0.06034   =>   CDf =  0.00604    CDp =  0.05430

 Side 1  free  transition at x/c =  0.0367   32
 Side 2  free  transition at x/c =  0.2613   32

  15   rms: 0.1431E+00   max: -.5882E+00   D at   32  1   RLX: 0.850
       a =  6.000      CL =  1.4485
      Cm = -0.2645     CD =  0.05206   =>   CDf =  0.00701    CDp =  0.04505

 MRCHDU: Convergence failed at  38  side 1    Res =  0.4883E+02
 MRCHDU: Convergence failed at  39  side 1    Res =  0.1054E+03
 MRCHDU: Convergence failed at  40  side 1    Res =  0.3521E+03
 MRCHDU: Convergence failed at  41  side 1    Res =  0.9562E+02
 MRCHDU: Convergence failed at  42  side 1    Res =  0.6658E+02
 MRCHDU: Convergence failed at  43  side 1    Res =  0.1783E+03
 MRCHDU: Convergence failed at  44  side 1    Res =  0.1213E+03
 MRCHDU: Convergence failed at  45  side 1    Res =  0.1210E+03
 MRCHDU: Convergence failed at  46  side 1    Res =  0.2284E+03
 MRCHDU: Convergence failed at  47  side 1    Res =  0.2578E+03
 MRCHDU: Convergence failed at  48  side 1    Res =  0.1039E+03
 MRCHDU: Convergence failed at  49  side 1    Res =  0.1100E+03
 MRCHDU: Convergence failed at  50  side 1    Res =  0.1147E+03
 MRCHDU: Convergence failed at  51  side 1    Res =  0.3232E+03
 MRCHDU: Convergence failed at  52  side 1    Res =  0.1355E+04
 MRCHDU: Convergence failed at  53  side 1    Res =  0.7361E+03
 MRCHDU: Convergence failed at  54  side 1    Res =  0.7041E+02
 MRCHDU: Convergence failed at  55  side 1    Res =  0.7196E+02
 MRCHDU: Convergence failed at  56  side 1    Res =  0.7484E+02
 MRCHDU: Convergence failed at  57  side 1    Res =  0.5709E+03
 MRCHDU: Convergence failed at  58  side 1    Res =  0.4930E+03
 MRCHDU: Convergence failed at  59  side 1    Res =  0.3972E+03
 MRCHDU: Convergence failed at  60  side 1    Res =  0.8494E+02
 MRCHDU: Convergence failed at  61  side 1    Res =  0.1362E+03
 MRCHDU: Convergence failed at  62  side 1    Res =  0.5642E+03
 MRCHDU: Convergence failed at  63  side 1    Res =  0.1022E+04
 MRCHDU: Convergence failed at  64  side 1    Res =  0.1260E+04
 MRCHDU: Convergence failed at  65  side 1    Res =  0.8810E+03
 MRCHDU: Convergence failed at  66  side 1    Res =  0.5227E+03
 MRCHDU: Convergence failed at  67  side 1    Res =  0.4189E+03
 MRCHDU: Convergence failed at  68  side 1    Res =  0.9244E+02
 MRCHDU: Convergence failed at  69  side 1    Res =  0.4687E+03
 MRCHDU: Convergence failed at  70  side 1    Res =  0.2215E+03
 MRCHDU: Convergence failed at  71  side 1    Res =  0.3562E+03
 MRCHDU: Convergence failed at  72  side 1    Res =  0.1903E+03
 MRCHDU: Convergence failed at  73  side 1    Res =  0.1185E+03
 MRCHDU: Convergence failed at  74  side 1    Res =  0.7372E+02
 MRCHDU: Convergence failed at  75  side 1    Res =  0.8243E+02
 MRCHDU: Convergence failed at  76  side 1    Res =  0.2979E+04
 MRCHDU: Convergence failed at  77  side 1    Res =  0.1083E+03
 MRCHDU: Convergence failed at  78  side 1    Res =  0.9302E+02
 MRCHDU: Convergence failed at  79  side 1    Res =  0.1108E+03
 MRCHDU: Convergence failed at  80  side 1    Res =  0.1619E+03
 MRCHDU: Convergence failed at  81  side 1    Res =  0.2000E+03
 MRCHDU: Convergence failed at  82  side 1    Res =  0.3339E+03
 MRCHDU: Convergence failed at  83  side 1    Res =  0.4882E+03
 MRCHDU: Convergence failed at  84  side 1    Res =  0.3693E+03
 MRCHDU: Convergence failed at  85  side 1    Res =  0.1733E+03
 MRCHDU: Convergence failed at  86  side 1    Res =  0.4274E+03
 MRCHDU: Convergence failed at  87  side 1    Res =  0.3934E+03
 MRCHDU: Convergence failed at  88  side 1    Res =  0.3606E+03
 MRCHDU: Convergence failed at  89  side 1    Res =  0.3426E+03
 Side 1  free  transition at x/c =  0.0717   37
 Side 2  free  transition at x/c =  0.2576   32

  16   rms: 0.1691E+01   max: 0.1264E+02   D at   75  2   RLX: 0.076
       a =  6.000      CL =  3.2216
      Cm = -0.8484     CD =  0.00809   =>   CDf =  0.00136    CDp =  0.00673

 Side 1  free  transition at x/c =  0.0537   35
 Side 2  free  transition at x/c =  0.2565   32

  17   rms: 0.4434E+01   max: 0.2913E+02   T at   35  1   RLX: 0.028
       a =  6.000      CL =  2.8774
      Cm = -0.7223     CD =  0.12572   =>   CDf =  0.00191    CDp =  0.12382

 MRCHDU: Convergence failed at  46  side 2    Res =  0.9798E+00
 Side 1  free  transition at x/c =  0.0515   35
 Side 2  free  transition at x/c =  0.2691   32

  18   rms: 0.2389E+01   max: -.1360E+02   D at   47  2   RLX: 0.037
       a =  6.000      CL =  2.9044
      Cm = -0.7294     CD =  0.14346   =>   CDf =  0.00212    CDp =  0.14133

 MRCHDU: Convergence failed at  44  side 2    Res =  0.4571E+01
 MRCHDU: Convergence failed at  45  side 2    Res =  0.2474E+01
 MRCHDU: Convergence failed at  46  side 2    Res =  0.1921E+01
 Side 1  free  transition at x/c =  0.0473   34
 Side 2  free  transition at x/c =  0.2732   32

  19   rms: 0.2783E+01   max: -.1544E+02   D at   47  2   RLX: 0.032
       a =  6.000      CL =  2.8769
      Cm = -0.7245     CD =  0.16544   =>   CDf =  0.00209    CDp =  0.16335

 Side 1  free  transition at x/c =  0.0471   34
 Side 2  free  transition at x/c =  0.2751   32

  20   rms: 0.1873E+01   max: -.1144E+02   D at   47  2   RLX: 0.044
       a =  6.000      CL =  2.8290
      Cm = -0.7126     CD =  0.17832   =>   CDf =  0.00248    CDp =  0.17584

 MRCHDU: Convergence failed at  44  side 2    Res =  0.7078E+01
 MRCHDU: Convergence failed at  45  side 2    Res =  0.1727E+02
 MRCHDU: Convergence failed at  46  side 2    Res =  0.4672E+01
 MRCHDU: Convergence failed at  47  side 2    Res =  0.3867E+01
 Side 1  free  transition at x/c =  0.0471   33
 Side 2  free  transition at x/c =  0.2762   33

  21   rms: 0.1991E+01   max: -.1308E+02   D at   48  2   RLX: 0.038
       a =  6.000      CL =  2.7718
      Cm = -0.6992     CD =  0.19837   =>   CDf =  0.00232    CDp =  0.19605

 MRCHDU: Convergence failed at  43  side 2    Res =  0.2666E+01
 MRCHDU: Convergence failed at  44  side 2    Res =  0.2648E+01
 MRCHDU: Convergence failed at  45  side 2    Res =  0.2163E+01
 MRCHDU: Convergence failed at  46  side 2    Res =  0.1652E+01
 MRCHDU: Convergence failed at  47  side 2    Res =  0.1226E+01
 Side 1  free  transition at x/c =  0.0471   33
 Side 2  free  transition at x/c =  0.2774   34

  22   rms: 0.1709E+01   max: -.1088E+02   D at   48  2   RLX: 0.046
       a =  6.000      CL =  2.7077
      Cm = -0.6841     CD =  0.21032   =>   CDf =  0.00237    CDp =  0.20795

 MRCHDU: Convergence failed at  42  side 2    Res =  0.2461E+01
 MRCHDU: Convergence failed at  43  side 2    Res =  0.2767E+01
 MRCHDU: Convergence failed at  44  side 2    Res =  0.2482E+01
 MRCHDU: Convergence failed at  45  side 2    Res =  0.1909E+01
 MRCHDU: Convergence failed at  46  side 2    Res =  0.1422E+01
 MRCHDU: Convergence failed at  47  side 2    Res =  0.9533E+00
 MRCHDU: Convergence failed at  52  side 2    Res =  0.3505E+01
 MRCHDU: Convergence failed at  53  side 2    Res =  0.2500E+02
 Side 1  free  transition at x/c =  0.0471   33
 Side 2  free  transition at x/c =  0.2779   34

  23   rms: 0.1552E+01   max: -.9019E+01   D at   48  2   RLX: 0.055
       a =  6.000      CL =  2.6319
      Cm = -0.6656     CD =  0.22415   =>   CDf =  0.00234    CDp =  0.22180

 MRCHDU: Convergence failed at  40  side 2    Res =  0.5554E+01
 MRCHDU: Convergence failed at  41  side 2    Res =  0.3289E+01
 MRCHDU: Convergence failed at  42  side 2    Res =  0.1834E+01
 MRCHDU: Convergence failed at  43  side 2    Res =  0.1713E+01
 MRCHDU: Convergence failed at  44  side 2    Res =  0.1839E+01
 MRCHDU: Convergence failed at  45  side 2    Res =  0.2566E+01
 MRCHDU: Convergence failed at  46  side 2    Res =  0.5414E+01
 MRCHDU: Convergence failed at  47  side 2    Res =  0.5307E+01
 MRCHDU: Convergence failed at  49  side 2    Res =  0.7360E+00
 MRCHDU: Convergence failed at  50  side 2    Res =  0.2216E+02
 MRCHDU: Convergence failed at  51  side 2    Res =  0.2310E+01
 MRCHDU: Convergence failed at  52  side 2    Res =  0.2508E+01
 MRCHDU: Convergence failed at  53  side 2    Res =  0.2543E+01
 MRCHDU: Convergence failed at  54  side 2    Res =  0.2489E+01
 MRCHDU: Convergence failed at  55  side 2    Res =  0.3201E+01
 MRCHDU: Convergence failed at  56  side 2    Res =  0.1139E+02
 MRCHDU: Convergence failed at  57  side 2    Res =  0.3667E+01
 MRCHDU: Convergence failed at  58  side 2    Res =  0.1906E+01
 MRCHDU: Convergence failed at  59  side 2    Res =  0.1230E+01
 MRCHDU: Convergence failed at  60  side 2    Res =  0.4069E+01
 MRCHDU: Convergence failed at  61  side 2    Res =  0.1730E+01
 MRCHDU: Convergence failed at  62  side 2    Res =  0.3012E+01
 MRCHDU: Convergence failed at  63  side 2    Res =  0.5651E+00
 Side 1  free  transition at x/c =  0.0470   33
 Side 2  free  transition at x/c =  0.2785   34

  24   rms: 0.1022E+01   max: -.4944E+01   D at   36  2   RLX: 0.101
       a =  6.000      CL =  2.3546
      Cm = -0.5780     CD =  0.20562   =>   CDf =  0.00409    CDp =  0.20153

 MRCHDU: Convergence failed at  64  side 2    Res =  0.1025E+02
 MRCHDU: Convergence failed at  65  side 2    Res =  0.7213E+00
 MRCHDU: Convergence failed at  66  side 2    Res =  0.1584E+00
 Side 1  free  transition at x/c =  0.0471   33
 Side 2  free  transition at x/c =  0.2752   33

  25   rms: 0.1142E+01   max: -.6362E+01   D at   36  2   RLX: 0.079
       a =  6.000      CL =  2.2671
      Cm = -0.5514     CD =  0.23643   =>   CDf =  0.00394    CDp =  0.23249
 VISCAL:  Convergence failed
 Calculating wake trajectory ...
 Calculating source influence matrix ...

 Solving BL system ...

 MRCHDU: Convergence failed at  37  side 2    Res =  0.2549E+01
 MRCHDU: Convergence failed at  67  side 2    Res =  0.1610E+01
 Side 1  free  transition at x/c =  0.0470   33
 Side 2  free  transition at x/c =  0.2760   33

   1   rms: 0.1296E+01   max: -.9070E+01   D at   35  2   RLX: 0.055
       a =  7.000      CL =  2.2110
      Cm = -0.5388     CD =  0.26265   =>   CDf =  0.00392    CDp =  0.25873

 MRCHDU: Convergence failed at  36  side 2    Res =  0.1391E+01
 MRCHDU: Convergence failed at  37  side 2    Res =  0.2054E+01
 Side 1  free  transition at x/c =  0.0467   33
 Side 2  free  transition at x/c =  0.2804   34

   2   rms: 0.1034E+01   max: -.5796E+01   D at   95  2   RLX: 0.086
       a =  7.000      CL =  2.1365
      Cm = -0.5246     CD =  0.23450   =>   CDf =  0.00406    CDp =  0.23044

 MRCHDU: Convergence failed at  69  side 2    Res =  0.7956E+00
 MRCHDU: Convergence failed at  96  side 2    Res =  0.9568E-02
 Side 1  free  transition at x/c =  0.0458   32
 Side 2  free  transition at x/c =  0.2766   34

   3   rms: 0.1811E+01   max: -.2776E+02   D at    2  2   RLX: 0.018
       a =  7.000      CL =  2.1172
      Cm = -0.5165     CD =  0.29395   =>   CDf =  0.00402    CDp =  0.28993

 MRCHDU: Convergence failed at  96  side 2    Res =  0.4489E-01
 Side 1  free  transition at x/c =  0.0458   32
 Side 2  free  transition at x/c =  0.2761   34

   4   rms: 0.8905E+00   max: -.6439E+01   D at   96  2   RLX: 0.078
[...]
 MRCHDU: Convergence failed at  49  side 1    Res =  0.1189E+03
 MRCHDU: Convergence failed at  50  side 1    Res =  0.9817E+03
 MRCHDU: Convergence failed at  51  side 1    Res =  0.1514E+03
 MRCHDU: Convergence failed at  52  side 1    Res =  0.1965E+03
 MRCHDU: Convergence failed at  53  side 1    Res =  0.2452E+03
 MRCHDU: Convergence failed at  54  side 1    Res =  0.4053E+03
 MRCHDU: Convergence failed at  55  side 1    Res =  0.6627E+03
 MRCHDU: Convergence failed at  56  side 1    Res =  0.1202E+04
 MRCHDU: Convergence failed at  57  side 1    Res =  0.1435E+04
 MRCHDU: Convergence failed at  58  side 1    Res =  0.1176E+04
 MRCHDU: Convergence failed at  59  side 1    Res =  0.7042E+03
 MRCHDU: Convergence failed at  60  side 1    Res =  0.5542E+03
 MRCHDU: Convergence failed at  61  side 1    Res =  0.4774E+03
 MRCHDU: Convergence failed at  62  side 1    Res =  0.4863E+03
 MRCHDU: Convergence failed at  63  side 1    Res =  0.4990E+03
 MRCHDU: Convergence failed at  64  side 1    Res =  0.5163E+03
 MRCHDU: Convergence failed at  65  side 1    Res =  0.2923E+03
 MRCHDU: Convergence failed at  66  side 1    Res =  0.2888E+03
 MRCHDU: Convergence failed at  67  side 1    Res =  0.2925E+03
 MRCHDU: Convergence failed at  68  side 1    Res =  0.3034E+03
 MRCHDU: Convergence failed at  69  side 1    Res =  0.8077E+03
 MRCHDU: Convergence failed at  70  side 1    Res =  0.9956E+03
 MRCHDU: Convergence failed at  71  side 1    Res =  0.1387E+04
 MRCHDU: Convergence failed at  72  side 1    Res =  0.2391E+04
 MRCHDU: Convergence failed at  73  side 1    Res =  0.8444E+04
 MRCHDU: Convergence failed at  74  side 1    Res =  0.9996E+04
 MRCHDU: Convergence failed at  75  side 1    Res =  0.2169E+04
 MRCHDU: Convergence failed at  76  side 1    Res =  0.1369E+04
 MRCHDU: Convergence failed at  77  side 1    Res =  0.8968E+03
 MRCHDU: Convergence failed at  78  side 1    Res =  0.5466E+03
 MRCHDU: Convergence failed at  79  side 1    Res =  0.7037E+03
 MRCHDU: Convergence failed at  80  side 1    Res =  0.8272E+03
 MRCHDU: Convergence failed at  81  side 1    Res =  0.1217E+04
 MRCHDU: Convergence failed at  82  side 1    Res =  0.2136E+04
 MRCHDU: Convergence failed at  83  side 1    Res =  0.3695E+04
 MRCHDU: Convergence failed at  84  side 1    Res =  0.1206E+05
 MRCHDU: Convergence failed at  85  side 1    Res =  0.2729E+04
 MRCHDU: Convergence failed at  86  side 1    Res =  0.1633E+04
 MRCHDU: Convergence failed at  87  side 1    Res =  0.1215E+04
 MRCHDU: Convergence failed at  88  side 1    Res =  0.1099E+04
 MRCHDU: Convergence failed at  89  side 1    Res =  0.8961E+03
 MRCHDU: Convergence failed at  90  side 1    Res =  0.7832E+03
 MRCHDU: Convergence failed at  91  side 1    Res =  0.7080E+03
 MRCHDU: Convergence failed at  92  side 1    Res =  0.6534E+03
 MRCHDU: Convergence failed at  93  side 1    Res =  0.5826E+03
 Side 1  free  transition at x/c =  0.0608   40
 Side 2  free  transition at x/c =  0.3022   31

  25   rms: 0.3741E+01   max: 0.4684E+02   T at   40  1   RLX: 0.026
       a = 10.000      CL =  4.8074
      Cm = -1.2402     CD =  0.00565   =>   CDf =  0.00117    CDp =  0.00448
 VISCAL:  Convergence failed
 Calculating wake trajectory ...
 Calculating source influence matrix ...

 Solving BL system ...

 Side 1  free  transition at x/c =  0.0536   38
 Side 2  free  transition at x/c =  0.3018   32

   1   rms: 0.4630E+01   max: 0.4527E+02   T at   38  1   RLX: 0.033
       a = 11.000      CL =  4.1941
      Cm = -1.0188     CD =  0.12726   =>   CDf =  0.00186    CDp =  0.12539

 Side 1  free  transition at x/c =  0.0480   38
 Side 2  free  transition at x/c =  0.3115   31

   2   rms: 0.2195E+01   max: 0.1259E+02   T at   38  1   RLX: 0.059
       a = 11.000      CL =  4.2819
      Cm = -1.0361     CD =  0.15490   =>   CDf =  0.00203    CDp =  0.15286

 MRCHDU: Convergence failed at  32  side 2    Res =  0.3401E+01
 MRCHDU: Convergence failed at  33  side 2    Res =  0.8963E+01
 MRCHDU: Convergence failed at  34  side 2    Res =  0.7193E+02
 MRCHDU: Convergence failed at  35  side 2    Res =  0.1908E+02
 MRCHDU: Convergence failed at  36  side 2    Res =  0.1199E+02
 MRCHDU: Convergence failed at  37  side 2    Res =  0.1163E+02
 MRCHDU: Convergence failed at  38  side 2    Res =  0.1294E+02
 MRCHDU: Convergence failed at  39  side 2    Res =  0.1488E+02
 MRCHDU: Convergence failed at  40  side 2    Res =  0.1788E+02
 MRCHDU: Convergence failed at  41  side 2    Res =  0.2413E+02
 MRCHDU: Convergence failed at  42  side 2    Res =  0.3544E+02
 MRCHDU: Convergence failed at  43  side 2    Res =  0.5592E+02
 MRCHDU: Convergence failed at  44  side 2    Res =  0.9634E+02
 MRCHDU: Convergence failed at  45  side 2    Res =  0.1585E+03
 MRCHDU: Convergence failed at  46  side 2    Res =  0.1664E+03
 MRCHDU: Convergence failed at  47  side 2    Res =  0.1492E+03
 MRCHDU: Convergence failed at  48  side 2    Res =  0.1341E+03
 MRCHDU: Convergence failed at  49  side 2    Res =  0.1193E+03
 MRCHDU: Convergence failed at  50  side 2    Res =  0.1089E+03
 MRCHDU: Convergence failed at  51  side 2    Res =  0.8714E+02
 MRCHDU: Convergence failed at  52  side 2    Res =  0.7832E+02
 MRCHDU: Convergence failed at  53  side 2    Res =  0.6733E+02
 MRCHDU: Convergence failed at  54  side 2    Res =  0.5733E+02
 MRCHDU: Convergence failed at  55  side 2    Res =  0.4814E+02
 MRCHDU: Convergence failed at  56  side 2    Res =  0.3902E+02
 MRCHDU: Convergence failed at  57  side 2    Res =  0.3277E+02
 MRCHDU: Convergence failed at  58  side 2    Res =  0.2737E+02
 MRCHDU: Convergence failed at  59  side 2    Res =  0.2251E+02
 MRCHDU: Convergence failed at  60  side 2    Res =  0.1819E+02
 MRCHDU: Convergence failed at  61  side 2    Res =  0.1553E+02
 MRCHDU: Convergence failed at  62  side 2    Res =  0.1449E+02
 MRCHDU: Convergence failed at  63  side 2    Res =  0.1596E+02
 MRCHDU: Convergence failed at  64  side 2    Res =  0.4026E+02
 MRCHDU: Convergence failed at  65  side 2    Res =  0.1008E+02
 Side 1  free  transition at x/c =  0.0467   37
 Side 2  free  transition at x/c =  0.3241   32

   3   rms: 0.1810E+01   max: 0.9720E+01   T at   38  1   RLX: 0.056
       a = 11.000      CL =  3.9502
      Cm = -0.9220     CD =  0.18260   =>   CDf =  0.00105    CDp =  0.18155

 MRCHDU: Convergence failed at  35  side 2    Res =  0.1694E-02
 MRCHDU: Convergence failed at  37  side 2    Res =  0.5798E+01
 Side 1  free  transition at x/c =  0.0448   37
 Side 2  free  transition at x/c =  0.3225   32

   4   rms: 0.1266E+01   max: -.6940E+01   D at   91  2   RLX: 0.072
       a = 11.000      CL =  3.9090
      Cm = -0.9164     CD =  0.18972   =>   CDf =  0.00252    CDp =  0.18719

 Side 1  free  transition at x/c =  0.0434   37
 Side 2  free  transition at x/c =  0.3185   32

   5   rms: 0.1097E+01   max: -.5915E+01   D at   91  2   RLX: 0.085
       a = 11.000      CL =  3.7893
      Cm = -0.8881     CD =  0.21120   =>   CDf =  0.00264    CDp =  0.20856

 MRCHDU: Convergence failed at  47  side 2    Res =  0.1907E-04
 Side 1  free  transition at x/c =  0.0419   36
 Side 2  free  transition at x/c =  0.3182   32

   6   rms: 0.1717E+01   max: 0.1626E+02   T at   37  1   RLX: 0.049
       a = 11.000      CL =  3.7076
      Cm = -0.8593     CD =  0.26343   =>   CDf =  0.00279    CDp =  0.26064

 MRCHDU: Convergence failed at  47  side 2    Res =  0.5664E-01
 Side 1  free  transition at x/c =  0.0404   36
 Side 2  free  transition at x/c =  0.3213   32

   7   rms: 0.1043E+01   max: -.5702E+01   D at   91  2   RLX: 0.088
       a = 11.000      CL =  3.5047
      Cm = -0.8060     CD =  0.23866   =>   CDf =  0.00307    CDp =  0.23558

 MRCHDU: Convergence failed at  35  side 2    Res =  0.9359E+01
 MRCHDU: Convergence failed at  48  side 2    Res =  0.9303E-01
 Side 1  free  transition at x/c =  0.0396   35
 Side 2  free  transition at x/c =  0.3197   33

   8   rms: 0.1149E+01   max: -.6654E+01   D at   48  2   RLX: 0.075
       a = 11.000      CL =  3.3819
      Cm = -0.7786     CD =  0.25329   =>   CDf =  0.00294    CDp =  0.25035

 MRCHDU: Convergence failed at  41  side 2    Res =  0.3117E+00
 MRCHDU: Convergence failed at  42  side 2    Res =  0.4018E+00
 MRCHDU: Convergence failed at  43  side 2    Res =  0.5025E+00
 MRCHDU: Convergence failed at  45  side 2    Res =  0.9952E+00
 MRCHDU: Convergence failed at  46  side 2    Res =  0.2125E+01
 MRCHDU: Convergence failed at  47  side 2    Res =  0.1219E+02
 MRCHDU: Convergence failed at  92  side 2    Res =  0.4142E-01
 Side 1  free  transition at x/c =  0.0385   35
 Side 2  free  transition at x/c =  0.3195   33

   9   rms: 0.1130E+01   max: -.7550E+01   D at   92  2   RLX: 0.066
       a = 11.000      CL =  3.2876
      Cm = -0.7552     CD =  0.25852   =>   CDf =  0.00325    CDp =  0.25526

 MRCHDU: Convergence failed at  92  side 2    Res =  0.2177E+00
 Side 1  free  transition at x/c =  0.0380   35
 Side 2  free  transition at x/c =  0.3195   33

  10   rms: 0.1838E+01   max: -.5652E+01   D at   53  2   RLX: 0.088
       a = 11.000      CL =  2.9954
      Cm = -0.6991     CD =  0.52559   =>   CDf =  0.00337    CDp =  0.52222

 MRCHDU: Convergence failed at  50  side 2    Res =  0.3477E+00
 MRCHDU: Convergence failed at  51  side 2    Res =  0.2358E+02
 MRCHDU: Convergence failed at  52  side 2    Res =  0.8061E+00
 MRCHDU: Convergence failed at  53  side 2    Res =  0.9566E+01
 MRCHDU: Convergence failed at  54  side 2    Res =  0.5708E+00
 MRCHDU: Convergence failed at  55  side 2    Res =  0.8135E+00
 MRCHDU: Convergence failed at  56  side 2    Res =  0.2332E+01
 MRCHDU: Convergence failed at  57  side 2    Res =  0.2136E+01
 MRCHDU: Convergence failed at  58  side 2    Res =  0.3354E+01
 Side 1  free  transition at x/c =  0.0382   35
 Side 2  free  transition at x/c =  0.3120   32

  11   rms: 0.1406E+01   max: 0.2657E+01   T at   32  2   RLX: 0.190
       a = 11.000      CL =  2.3637
      Cm = -0.5468     CD =  0.55489   =>   CDf =  0.00479    CDp =  0.55010

 MRCHDU: Convergence failed at  37  side 2    Res =  0.6881E-01
 MRCHDU: Convergence failed at  45  side 2    Res =  0.6262E-01
 Side 1  free  transition at x/c =  0.0383   34
 Side 2  free  transition at x/c =  0.2978   33

  12   rms: 0.1233E+01   max: 0.5422E+01   T at   36  2   RLX: 0.137
       a = 11.000      CL =  2.1111
      Cm = -0.4985     CD =  0.81344   =>   CDf =  0.00432    CDp =  0.80912

 MRCHDU: Convergence failed at  34  side 2    Res =  0.2962E+02
 MRCHDU: Convergence failed at  35  side 2    Res =  0.1551E+02
 MRCHDU: Convergence failed at  36  side 2    Res =  0.1457E+02
 MRCHDU: Convergence failed at  37  side 2    Res =  0.2476E+03
 MRCHDU: Convergence failed at  46  side 2    Res =  0.8932E+01
 MRCHDU: Convergence failed at  47  side 2    Res =  0.1335E+01
 MRCHDU: Convergence failed at  48  side 2    Res =  0.1296E+01
 MRCHDU: Convergence failed at  49  side 2    Res =  0.1818E+01
 Side 1  free  transition at x/c =  0.0386   33
 Side 2  free  transition at x/c =  0.2915   33

  13   rms: 0.1141E+01   max: 0.3521E+01   C at   66  2   RLX: 0.252
       a = 11.000      CL =  1.6529
      Cm = -0.4024     CD =  1.16526   =>   CDf =  0.00399    CDp =  1.16126

 Side 1  free  transition at x/c =  0.0390   32
 Side 2  free  transition at x/c =  0.2778   34

  14   rms: 0.9336E+00   max: 0.3439E+01   C at   67  2   RLX: 0.286
       a = 11.000      CL =  1.3503
      Cm = -0.3370     CD =  2.62998   =>   CDf =  0.00349    CDp =  2.62649

 MRCHDU: Convergence failed at  34  side 2    Res =  0.1465E+02
 MRCHDU: Convergence failed at  35  side 2    Res =  0.3145E+02
 MRCHDU: Convergence failed at  36  side 2    Res =  0.1673E+02
 MRCHDU: Convergence failed at  37  side 2    Res =  0.7013E+01
 MRCHDU: Convergence failed at  38  side 2    Res =  0.8217E+01
 MRCHDU: Convergence failed at  39  side 2    Res =  0.1946E+02
 MRCHDU: Convergence failed at  40  side 2    Res =  0.1752E+02
 MRCHDU: Convergence failed at  41  side 2    Res =  0.5337E+02
 MRCHDU: Convergence failed at  42  side 2    Res =  0.3868E+02
 MRCHDU: Convergence failed at  43  side 2    Res =  0.4255E+02
 MRCHDU: Convergence failed at  44  side 2    Res =  0.4751E+02
 MRCHDU: Convergence failed at  45  side 2    Res =  0.8521E+02
 MRCHDU: Convergence failed at  46  side 2    Res =  0.5952E+02
 MRCHDU: Convergence failed at  47  side 2    Res =  0.4139E+02
 MRCHDU: Convergence failed at  48  side 2    Res =  0.3279E+02
 MRCHDU: Convergence failed at  49  side 2    Res =  0.2788E+02
 MRCHDU: Convergence failed at  50  side 2    Res =  0.2347E+02
 MRCHDU: Convergence failed at  51  side 2    Res =  0.2071E+02
 MRCHDU: Convergence failed at  52  side 2    Res =  0.1984E+02
 MRCHDU: Convergence failed at  53  side 2    Res =  0.2478E+02
 MRCHDU: Convergence failed at  54  side 2    Res =  0.2181E+02
 MRCHDU: Convergence failed at  55  side 2    Res =  0.1951E+02
 MRCHDU: Convergence failed at  56  side 2    Res =  0.1757E+02
 MRCHDU: Convergence failed at  57  side 2    Res =  0.1651E+02
 MRCHDU: Convergence failed at  58  side 2    Res =  0.1598E+02
 MRCHDU: Convergence failed at  59  side 2    Res =  0.1556E+02
 MRCHDU: Convergence failed at  60  side 2    Res =  0.1474E+02
 MRCHDU: Convergence failed at  61  side 2    Res =  0.1320E+02
 MRCHDU: Convergence failed at  62  side 2    Res =  0.2409E+02
 MRCHDU: Convergence failed at  63  side 2    Res =  0.1811E+02
 MRCHDU: Convergence failed at  64  side 2    Res =  0.1828E+02
 MRCHDU: Convergence failed at  65  side 2    Res =  0.2277E+02
 MRCHDU: Convergence failed at  66  side 2    Res =  0.1963E+02
 MRCHDU: Convergence failed at  67  side 2    Res =  0.1667E+02
 MRCHDU: Convergence failed at  68  side 2    Res =  0.1548E+02
 MRCHDU: Convergence failed at  69  side 2    Res =  0.1494E+02
 MRCHDU: Convergence failed at  70  side 2    Res =  0.1255E+02
 MRCHDU: Convergence failed at  71  side 2    Res =  0.1157E+02
 MRCHDU: Convergence failed at  72  side 2    Res =  0.1386E+02
 MRCHDU: Convergence failed at  73  side 2    Res =  0.1155E+01
 Side 1  free  transition at x/c =  0.0394   32
 Side 2  free  transition at x/c =  0.2678   33

  15   rms: 0.9912E+00   max: 0.5809E+01   T at   33  2   RLX: 0.119
       a = 11.000      CL =  0.9764
      Cm = -0.2098     CD =  3.58949   =>   CDf =  0.00101    CDp =  3.58848

 MRCHDU: Convergence failed at  41  side 2    Res =  0.1286E+00
 MRCHDU: Convergence failed at  43  side 2    Res =  0.1001E+00
 MRCHDU: Convergence failed at  45  side 2    Res =  0.1670E+00
 MRCHDU: Convergence failed at  46  side 2    Res =  0.1717E+00
 MRCHDU: Convergence failed at  47  side 2    Res =  0.1750E+00
 MRCHDU: Convergence failed at  48  side 2    Res =  0.1673E+00
 MRCHDU: Convergence failed at  49  side 2    Res =  0.1593E+00
 MRCHDU: Convergence failed at  50  side 2    Res =  0.1541E+00
 MRCHDU: Convergence failed at  51  side 2    Res =  0.1532E+00
 MRCHDU: Convergence failed at  52  side 2    Res =  0.1547E+00
 MRCHDU: Convergence failed at  53  side 2    Res =  0.1495E+00
 MRCHDU: Convergence failed at  54  side 2    Res =  0.1464E+00
 MRCHDU: Convergence failed at  55  side 2    Res =  0.1453E+00
 MRCHDU: Convergence failed at  56  side 2    Res =  0.1420E+00
 MRCHDU: Convergence failed at  57  side 2    Res =  0.1409E+00
 MRCHDU: Convergence failed at  58  side 2    Res =  0.1449E+00
 MRCHDU: Convergence failed at  59  side 2    Res =  0.1635E+00
 MRCHDU: Convergence failed at  60  side 2    Res =  0.1959E+00
 MRCHDU: Convergence failed at  61  side 2    Res =  0.2149E+00
 MRCHDU: Convergence failed at  62  side 2    Res =  0.2201E+00
 MRCHDU: Convergence failed at  63  side 2    Res =  0.2335E+00
 MRCHDU: Convergence failed at  64  side 2    Res =  0.2496E+00
 MRCHDU: Convergence failed at  65  side 2    Res =  0.2576EGot result {'DD': 0.03715, 'Dmin': 0.03742, 'LL': -0.7364}
Completed successfully in 4.76 seconds. [{'DD': 0.03715, 'Dmin': 0.03742, 'LL': -0.7364}]
+00
 MRCHDU: Convergence failed at  66  side 2    Res =  0.2637E+00
 MRCHDU: Convergence failed at  67  side 2    Res =  0.2690E+00
 MRCHDU: Convergence failed at  68  side 2    Res =  0.2745E+00
 MRCHDU: Convergence failed at  69  side 2    Res =  0.2822E+00
 MRCHDU: Convergence failed at  70  side 2    Res =  0.2961E+00
 MRCHDU: Convergence failed at  71  side 2    Res =  0.3181E+00
 MRCHDU: Convergence failed at  72  side 2    Res =  0.3412E+00
 MRCHDU: Convergence failed at  73  side 2    Res =  0.3592E+00
 MRCHDU: Convergence failed at  74  side 2    Res =  0.3813E+00
 Side 1  free  transition at x/c =  0.0396   31
 Side 2  free  transition at x/c =  0.2561   33

  16   rms: 0.5619E+01   max: 0.6445E+02   T at   33  2   RLX: 0.016
       a = 11.000      CL =  1.1542
      Cm = -0.2764     CD =  4.50810   =>   CDf =  0.00109    CDp =  4.50702

 Side 1  free  transition at x/c =  0.0396   31
 Side 2  free  transition at x/c =  0.2426   33

  17   rms: 0.7198E+00   max: -.5180E+01   D at   72  2   RLX: 0.097
       a = 11.000      CL =  1.1159
      Cm = -0.2822     CD =  4.10314   =>   CDf =  0.00109    CDp =  4.10205

 Side 1  free  transition at x/c =  0.0398   31
 Side 2  free  transition at x/c =  0.2434   33

  18   rms: 0.6402E+00   max: -.4388E+01   D at   72  2   RLX: 0.114
       a = 11.000      CL =  1.0461
      Cm = -0.2680     CD =  3.64710   =>   CDf =  0.00117    CDp =  3.64593

 MRCHDU: Convergence failed at  71  side 2    Res =  0.1308E+00
 MRCHDU: Convergence failed at  72  side 2    Res =  0.5604E+00
 MRCHDU: Convergence failed at  73  side 2    Res =  0.9624E-01
 MRCHDU: Convergence failed at  74  side 2    Res =  0.1732E+00
 Side 1  free  transition at x/c =  0.0400   31
 Side 2  free  transition at x/c =  0.2464   33

  19   rms: 0.7110E+00   max: -.5569E+01   D at   73  2   RLX: 0.090
       a = 11.000      CL =  1.0331
      Cm = -0.2733     CD =  3.58530   =>   CDf =  0.00115    CDp =  3.58415

 MRCHDU: Convergence failed at  73  side 2    Res =  0.2485E+00
 MRCHDU: Convergence failed at  74  side 2    Res =  0.2492E+00
 Side 1  free  transition at x/c =  0.0401   31
 Side 2  free  transition at x/c =  0.2527   33

  20   rms: 0.3612E+01   max: 0.2770E+02   T at   33  2   RLX: 0.054
       a = 11.000      CL =  1.0749
      Cm = -0.2603     CD =  4.33900   =>   CDf =  0.00110    CDp =  4.33790

 Side 1  free  transition at x/c =  0.0387   31
 Side 2  free  transition at x/c =  0.2382   32

  21   rms: 0.2226E+01   max: -.1898E+02   T at   31  1   RLX: 0.026
       a = 11.000      CL =  1.0438
      Cm = -0.2645     CD =  3.48869   =>   CDf =  0.00092    CDp =  3.48778

 Side 1  free  transition at x/c =  0.0389   31
 Side 2  free  transition at x/c =  0.2395   32

  22   rms: 0.2973E+01   max: -.1374E+02   T at   31  1   RLX: 0.036
       a = 11.000      CL =  0.9547
      Cm = -0.2576     CD =  2.66412   =>   CDf =  0.00099    CDp =  2.66313

 MRCHDU: Convergence failed at  30  side 1    Res =  0.1227E+01
 Side 1  free  transition at x/c =  0.0489   32
 Side 2  free  transition at x/c =  0.2453   34

  23   rms: 0.1339E+01   max: -.7357E+01   D at   75  2   RLX: 0.068
       a = 11.000      CL =  0.7893
      Cm = -0.2186     CD =  2.10335   =>   CDf =  0.00121    CDp =  2.10215

 Side 1  free  transition at x/c =  0.0499   32
 Side 2  free  transition at x/c =  0.2543   34

  24   rms: 0.1221E+01   max: -.6582E+01   D at   67  2   RLX: 0.076
       a = 11.000      CL =  0.7751
      Cm = -0.2182     CD =  1.92653   =>   CDf =  0.00135    CDp =  1.92519

 Side 1  free  transition at x/c =  0.0497   32
 Side 2  free  transition at x/c =  0.2568   34

  25   rms: 0.7297E+00   max: 0.6676E+01   T at   34  2   RLX: 0.187
       a = 11.000      CL =  0.7211
      Cm = -0.1891     CD =  1.34782   =>   CDf =  0.00143    CDp =  1.34639
 VISCAL:  Convergence failed

 Sequence halted since previous  4 points did not converge
 Last-converged  alpha =   7.000    CL =   1.43326

.OPERva   c>  
 XFOIL   c>  
