Job launching after 0.40 seconds in submission.
Running python job.
Changed into dir /home/simonx/Documents/Udacity/Projects/capstone/PESM_NSGA2_CST_XFoil
Importing evaluationFunctionXFoil.py
Running evaluationFunctionXFoil.main()
0
1
2
0.04
resp: 
 ===================================================
  XFOIL Version 6.97
  Copyright (C) 2000   Mark Drela, Harold Youngren

  This software comes with ABSOLUTELY NO WARRANTY,
    subject to the GNU General Public License.

  Caveat computor
 ===================================================

 File  xfoil.def  not found

   QUIT    Exit program

  .OPER    Direct operating point(s)
  .MDES    Complex mapping design routine
  .QDES    Surface speed design routine
  .GDES    Geometry design routine

   SAVE f  Write airfoil to labeled coordinate file
   PSAV f  Write airfoil to plain coordinate file
   ISAV f  Write airfoil to ISES coordinate file
   MSAV f  Write airfoil to MSES coordinate file
   REVE    Reverse written-airfoil node ordering
   DELI i  Change written-airfoil file delimiters

   LOAD f  Read buffer airfoil from coordinate file
   NACA i  Set NACA 4,5-digit airfoil and buffer airfoil
   INTE    Set buffer airfoil by interpolating two airfoils
   NORM    Buffer airfoil normalization toggle
   HALF    Halve the number of points in buffer airfoil
   XYCM rr Change CM reference location, currently  0.25000 0.00000

   BEND    Display structural properties of current airfoil

   PCOP    Set current-airfoil panel nodes directly from buffer airfoil points
   PANE    Set current-airfoil panel nodes ( 160 ) based on curvature
  .PPAR    Show/change paneling

  .PLOP    Plotting options

   WDEF f  Write  current-settings file
   RDEF f  Reread current-settings file
   NAME s  Specify new airfoil name
   NINC    Increment name version number

   Z       Zoom    | (available in all menus)
   U       Unzoom  | 

 XFOIL   c>   ...............................................

  G raphics-enable flag:        T
  S ize of plot object          10.00"
  A spect ratio of plot object   0.5500
  P age dimensions              11.00 x  8.50"
  M argins from page edges       0.00",  0.00"
  F ont size (relative)          0.0150
  W indow/screen size fraction   0.8000
  B lowup input method:        Cursor    
  O rientation of plot:        Landscape 
  C olor PostScript output?     F

      Option, Value   (or <Return>)    c>   ...............................................

  G raphics-enable flag:        F
  S ize of plot object          10.00"
  A spect ratio of plot object   0.5500
  P age dimensions              11.00 x  8.50"
  M argins from page edges       0.00",  0.00"
  F ont size (relative)          0.0150
  W indow/screen size fraction   0.8000
  B lowup input method:        Cursor    
  O rientation of plot:        Landscape 
  C olor PostScript output?     F

      Option, Value   (or <Return>)    c>  
 XFOIL   c>  
 Labeled airfoil file.  Name:  000177                                          

 Number of input coordinate points: 200
 Clockwise ordering
 Max thickness =     0.199120  at x =   0.146
 Max camber    =     0.090489  at x =   0.422

  LE  x,y  =  -0.00000   0.00079  |   Chord =   0.99988
  TE  x,y  =   0.99988   0.00003  |

 Current airfoil nodes set from buffer airfoil nodes ( 200 )

 XFOIL   c>  
 You are working with the buffer airfoil

.GDES   c>  
  i       x        y      angle
   2   0.9990   0.0002   -0.013
   3   0.9978   0.0005   -0.069
   4   0.9961   0.0009   -0.055
   5   0.9938   0.0014   -0.045
   6   0.9911   0.0020   -0.103
   7   0.9880   0.0028   -0.096
   8   0.9843   0.0036   -0.091
   9   0.9801   0.0046   -0.121
  10   0.9755   0.0057   -0.132
  11   0.9704   0.0069   -0.131
  12   0.9649   0.0083   -0.149
  13   0.9589   0.0097   -0.142
  14   0.9524   0.0114   -0.155
  15   0.9455   0.0131   -0.167
  16   0.9382   0.0150   -0.153
  17   0.9304   0.0170   -0.169
  18   0.9222   0.0191   -0.159
  19   0.9135   0.0214   -0.164
  20   0.9045   0.0238   -0.165
  21   0.8951   0.0263   -0.151
  22   0.8853   0.0290   -0.160
  23   0.8751   0.0318   -0.136
  24   0.8645   0.0347   -0.143
  25   0.8536   0.0378   -0.129
  26   0.8423   0.0410   -0.115
  27   0.8307   0.0443   -0.111
  28   0.8187   0.0477   -0.090
  29   0.8065   0.0512   -0.078
  30   0.7939   0.0549   -0.065
  31   0.7810   0.0586   -0.044
  32   0.7679   0.0625   -0.028
  33   0.7545   0.0664   -0.012
  34   0.7409   0.0704    0.014
  35   0.7270   0.0745    0.027
  36   0.7129   0.0786    0.054
  37   0.6986   0.0827    0.080
  38   0.6841   0.0870    0.102
  39   0.6694   0.0912    0.126
  40   0.6545   0.0954    0.152
  41   0.6395   0.0997    0.183
  42   0.6243   0.1039    0.213
  43   0.6091   0.1081    0.235
  44   0.5937   0.1123    0.273
  45   0.5782   0.1164    0.297
  46   0.5627   0.1204    0.339
  47   0.5471   0.1244    0.367
  48   0.5314   0.1282    0.399
  49   0.5157   0.1320    0.441
  50   0.5000   0.1356    0.475
  51   0.4843   0.1391    0.515
  52   0.4686   0.1425    0.552
  53   0.4529   0.1456    0.596
  54   0.4373   0.1487    0.637
  55   0.4218   0.1515    0.680
  56   0.4063   0.1541    0.727
  57   0.3909   0.1565    0.771
  58   0.3757   0.1586    0.823
  59   0.3605   0.1606    0.867
  60   0.3455   0.1622    0.931
  61   0.3306   0.1637    0.975
  62   0.3159   0.1648    1.033
  63   0.3014   0.1657    1.095
  64   0.2871   0.1663    1.154
  65   0.2730   0.1666    1.215
  66   0.2591   0.1666    1.281
  67   0.2455   0.1663    1.349
  68   0.2321   0.1656    1.423
  69   0.2190   0.1647    1.487
  70   0.2061   0.1635    1.569
  71   0.1935   0.1619    1.641
  72   0.1813   0.1600    1.727
  73   0.1693   0.1578    1.807
  74   0.1577   0.1553    1.886
  75   0.1464   0.1524    1.982
  76   0.1355   0.1492    2.062
  77   0.1249   0.1457    2.157
  78   0.1147   0.1420    2.248
  79   0.1049   0.1379    2.339
  80   0.0955   0.1335    2.438
  81   0.0865   0.1288    2.519
  82   0.0778   0.1238    2.628
  83   0.0696   0.1186    2.708
  84   0.0618   0.1131    2.804
  85   0.0545   0.1073    2.884
  86   0.0476   0.1013    2.985
  87   0.0411   0.0951    3.056
  88   0.0351   0.0887    3.134
  89   0.0296   0.0820    3.211
  90   0.0245   0.0752    3.275
  91   0.0199   0.0682    3.343
  92   0.0157   0.0610    3.402
  93   0.0120   0.0537    3.442
  94   0.0089   0.0463    3.501
  95   0.0062   0.0387    3.527
  96   0.0039   0.0311    3.558
  97   0.0022   0.0234    3.591
  98   0.0010   0.0156    3.599
  99   0.0002   0.0078    3.612
 100   0.0000   0.0000    4.454
 101   0.0002  -0.0054    5.299
 102   0.0010  -0.0107    5.352
 103   0.0022  -0.0159    5.455
 104   0.0039  -0.0209    5.543
 105   0.0062  -0.0258    5.668
 106   0.0089  -0.0305    5.781
 107   0.0120  -0.0350    5.825
 108   0.0157  -0.0391    5.868
 109   0.0199  -0.0429    5.802
 110   0.0245  -0.0464    5.683
 111   0.0296  -0.0494    5.473
 112   0.0351  -0.0521    5.203
 113   0.0411  -0.0543    4.874
 114   0.0476  -0.0561    4.525
 115   0.0545  -0.0575    4.124
 116   0.0618  -0.0583    3.748
 117   0.0696  -0.0588    3.350
 118   0.0778  -0.0587    2.989
 119   0.0865  -0.0583    2.648
 120   0.0955  -0.0573    2.311
 121   0.1049  -0.0560    2.023
 122   0.1147  -0.0542    1.735
 123   0.1249  -0.0521    1.484
 124   0.1355  -0.0495    1.250
 125   0.1464  -0.0467    1.036
 126   0.1577  -0.0435    0.836
 127   0.1693  -0.0401    0.647
 128   0.1813  -0.0364    0.485
 129   0.1935  -0.0325    0.320
 130   0.2061  -0.0284    0.181
 131   0.2190  -0.0242    0.039
 132   0.2321  -0.0199   -0.079
 133   0.2455  -0.0155   -0.203
 134   0.2591  -0.0111   -0.314
 135   0.2730  -0.0067   -0.406
 136   0.2871  -0.0023   -0.510
 137   0.3014   0.0020   -0.588
 138   0.3159   0.0062   -0.669
 139   0.3306   0.0102   -0.742
 140   0.3455   0.0141   -0.801
 141   0.3605   0.0179   -0.860
 142   0.3757   0.0214   -0.905
 143   0.3909   0.0246   -0.948
 144   0.4063   0.0277   -0.981
 145   0.4218   0.0305   -0.998
 146   0.4373   0.0330   -1.023
 147   0.4529   0.0352   -1.026
 148   0.4686   0.0372   -1.030
 149   0.4843   0.0389   -1.025
 150   0.5000   0.0403   -1.011
 151   0.5157   0.0414   -0.993
 152   0.5314   0.0422   -0.969
 153   0.5471   0.0428   -0.940
 154   0.5627   0.0431   -0.905
 155   0.5782   0.0432   -0.861
 156   0.5937   0.0431   -0.827
 157   0.6091   0.0427   -0.774
 158   0.6243   0.0421   -0.731
 159   0.6395   0.0413   -0.677
 160   0.6545   0.0404   -0.631
 161   0.6694   0.0393   -0.575
 162   0.6841   0.0380   -0.522
 163   0.6986   0.0367   -0.473
 164   0.7129   0.0352   -0.424
 165   0.7270   0.0337   -0.364
 166   0.7409   0.0321   -0.321
 167   0.7545   0.0305   -0.268
 168   0.7679   0.0288   -0.224
 169   0.7810   0.0271   -0.176
 170   0.7939   0.0254   -0.137
 171   0.8065   0.0237   -0.092
 172   0.8187   0.0220   -0.061
 173   0.8307   0.0203   -0.015
 174   0.8423   0.0187    0.011
 175   0.8536   0.0172    0.046
 176   0.8645   0.0157    0.068
 177   0.8751   0.0142    0.097
 178   0.8853   0.0129    0.114
 179   0.8951   0.0116    0.133
 180   0.9045   0.0103    0.158
 181   0.9135   0.0092    0.164
 182   0.9222   0.0081    0.173
 183   0.9304   0.0071    0.185
 184   0.9382   0.0062    0.185
 185   0.9455   0.0053    0.185
 186   0.9524   0.0046    0.194
 187   0.9589   0.0039    0.181
 188   0.9649   0.0033    0.183
 189   0.9704   0.0027    0.177
 190   0.9755   0.0022    0.157
 191   0.9801   0.0017    0.159
 192   0.9843   0.0014    0.147
 193   0.9880   0.0010    0.119
 194   0.9911   0.0007    0.108
 195   0.9938   0.0005    0.076
 196   0.9961   0.0003    0.114
 197   0.9978   0.0002    0.009
 198   0.9990   0.0001    0.097
 199   0.9998   0.0000    0.006

 Maximum panel corner angle =  5.868   at  i,x,y  = 108   0.0157  -0.0391

 Enter corner angle criterion for refinement (deg):   2.934
 Enter type of spline parameter (1=uniform, 2=arclength):   1
 Enter refinement x limits:  -0.10000   1.10000
 Number of points added:           66
 Max thickness =     0.199078  at x =   0.146
 Max camber    =     0.090949  at x =   0.422

 Maximum panel corner angle =  2.804   at  i,x,y  =  84   0.0618   0.1131

.GDES   c>  
 Buffer airfoil is not identical to current airfoil

 XFOIL   c>  
 Blunt trailing edge.  Gap =  0.00025

 Paneling parameters used...
   Number of panel nodes       160
   Panel bunching parameter    1.000
   TE/LE panel density ratio   0.150
   Refined-area/LE panel density ratio    0.200
   Top    side refined area x/c limits  1.000 1.000
   Bottom side refined area x/c limits  1.000 1.000

 XFOIL   c>  
Enter output filename   s>  
 XFOIL   c>  
.OPERi   c>   Current iteration limit:          20

Enter new iteration limit   i>  
Enter new iteration limit   i>  
Enter new iteration limit   i>  
.OPERi   c>  
 M  =    0.0000
 Re =  0.3000E+06

.OPERv   c>  
 Sonic Cp =   -420.65      Sonic Q/Qinf =    22.825


.OPERv   c>  
 Polar  1 newly created for accumulation
 Airfoil archived with polar: 000177                                          

Enter  polar save filename  OR  <return> for no file   s>  
 New polar save file available

Enter  polar dump filename  OR  <return> for no file   s>  
 Polar dump file will NOT be written

 Polar accumulation enabled

.OPERva   c>   Calculating unit vorticity distributions ...
 Calculating wake trajectory ...
 Calculating source influence matrix ...

 Solving BL system ...

 Initializing BL ...
    side            1  ...
 MRCHUE: Inverse mode at  51     Hk =   4.579
 MRCHUE: Inverse mode at  52     Hk =   5.454
 MRCHUE: Inverse mode at  53     Hk =   6.333
 MRCHUE: Inverse mode at  54     Hk =   7.223
 MRCHUE: Inverse mode at  55     Hk =   8.127
 MRCHUE: Inverse mode at  56     Hk =   9.050
 MRCHUE: Inverse mode at  57     Hk =   5.704
 MRCHUE: Inverse mode at  58     Hk =   2.949
 MRCHUE: Convergence failed at  83  side 1    Res =  0.1208E+02
    side            2  ...
 MRCHUE: Inverse mode at  30     Hk =   3.800
 MRCHUE: Inverse mode at  31     Hk =   4.391
 MRCHUE: Inverse mode at  32     Hk =   4.982
 MRCHUE: Inverse mode at  33     Hk =   5.583
 MRCHUE: Inverse mode at  34     Hk =   6.199
 MRCHUE: Inverse mode at  35     Hk =   6.840
 MRCHUE: Inverse mode at  36     Hk =   7.513
 MRCHUE: Inverse mode at  37     Hk =   8.226
 MRCHUE: Inverse mode at  38     Hk =   8.990
 MRCHUE: Inverse mode at  39     Hk =   9.816
 MRCHUE: Inverse mode at  40     Hk =   6.262
 MRCHUE: Inverse mode at  41     Hk =   3.674
 MRCHUE: Inverse mode at  42     Hk =   2.500
 MRCHUE: Inverse mode at  43     Hk =   2.500
 MRCHUE: Inverse mode at  44     Hk =   2.500
 MRCHUE: Inverse mode at  45     Hk =   2.500
 MRCHUE: Inverse mode at  46     Hk =   2.500
 MRCHUE: Inverse mode at  47     Hk =   2.500
 MRCHUE: Inverse mode at  48     Hk =   2.500
 MRCHUE: Inverse mode at  49     Hk =   2.500
 MRCHUE: Inverse mode at  50     Hk =   2.500
 MRCHUE: Inverse mode at  51     Hk =   2.500
 MRCHUE: Inverse mode at  52     Hk =   2.500
 MRCHUE: Inverse mode at  53     Hk =   2.500
 MRCHUE: Inverse mode at  54     Hk =   2.500
 MRCHUE: Inverse mode at  55     Hk =   2.500
 MRCHUE: Inverse mode at  56     Hk =   2.500
 MRCHUE: Inverse mode at  57     Hk =   2.500
 MRCHUE: Convergence failed at  79  side 2    Res =  0.8198E+00

 MRCHDU: Convergence failed at  83  side 1    Res =  0.1438E+02
 Side 1  free  transition at x/c =  0.3596   57
 Side 2  free  transition at x/c =  0.1739   40

   1   rms: 0.5291E+00   max: -.2057E+01   D at   51  2   RLX: 0.243
       a =  2.000      CL =  1.0936
      Cm = -0.1558     CD =  0.01005   =>   CDf =  0.00778    CDp =  0.00227

 Side 1  free  transition at x/c =  0.3639   57
 Side 2  free  transition at x/c =  0.1724   40

   2   rms: 0.3268E+00   max: -.1353E+01   D at   55  2   RLX: 0.370
       a =  2.000      CL =  1.0713
      Cm = -0.1510     CD =  0.01289   =>   CDf =  0.00812    CDp =  0.00477

 MRCHDU: Convergence failed at  41  side 2    Res =  0.6497E+01
 MRCHDU: Convergence failed at  42  side 2    Res =  0.5000E+01
 MRCHDU: Convergence failed at  43  side 2    Res =  0.5923E+02
 MRCHDU: Convergence failed at  44  side 2    Res =  0.8834E+01
 MRCHDU: Convergence failed at  45  side 2    Res =  0.1703E+02
 MRCHDU: Convergence failed at  46  side 2    Res =  0.4621E+02
 MRCHDU: Convergence failed at  47  side 2    Res =  0.4602E+02
 MRCHDU: Convergence failed at  48  side 2    Res =  0.7636E+02
 MRCHDU: Convergence failed at  49  side 2    Res =  0.7050E+02
 MRCHDU: Convergence failed at  50  side 2    Res =  0.1748E+02
 MRCHDU: Convergence failed at  51  side 2    Res =  0.2003E+02
 MRCHDU: Convergence failed at  52  side 2    Res =  0.2295E+02
 MRCHDU: Convergence failed at  53  side 2    Res =  0.2628E+02
 MRCHDU: Convergence failed at  54  side 2    Res =  0.2994E+02
 MRCHDU: Convergence failed at  55  side 2    Res =  0.2087E+02
 MRCHDU: Convergence failed at  56  side 2    Res =  0.1909E+02
 MRCHDU: Convergence failed at  57  side 2    Res =  0.2088E+02
 MRCHDU: Convergence failed at  58  side 2    Res =  0.2310E+02
 MRCHDU: Convergence failed at  59  side 2    Res =  0.2147E+02
 MRCHDU: Convergence failed at  60  side 2    Res =  0.1842E+02
 MRCHDU: Convergence failed at  61  side 2    Res =  0.3241E+02
 MRCHDU: Convergence failed at  62  side 2    Res =  0.2829E+02
 MRCHDU: Convergence failed at  63  side 2    Res =  0.2519E+02
 MRCHDU: Convergence failed at  64  side 2    Res =  0.2278E+02
 MRCHDU: Convergence failed at  65  side 2    Res =  0.2075E+02
 MRCHDU: Convergence failed at  66  side 2    Res =  0.6710E+02
 MRCHDU: Convergence failed at  67  side 2    Res =  0.5429E+03
 MRCHDU: Convergence failed at  68  side 2    Res =  0.8525E+02
 MRCHDU: Convergence failed at  69  side 2    Res =  0.5125E+02
 MRCHDU: Convergence failed at  70  side 2    Res =  0.4237E+02
 MRCHDU: Convergence failed at  71  side 2    Res =  0.3243E+02
 MRCHDU: Convergence failed at  72  side 2    Res =  0.2597E+02
 MRCHDU: Convergence failed at  73  side 2    Res =  0.2300E+02
 MRCHDU: Convergence failed at  74  side 2    Res =  0.6985E+02
 MRCHDU: Convergence failed at  75  side 2    Res =  0.2745E+03
 MRCHDU: Convergence failed at  76  side 2    Res =  0.2738E+04
 MRCHDU: Convergence failed at  77  side 2    Res =  0.4645E+03
 MRCHDU: Convergence failed at  78  side 2    Res =  0.1270E+04
 MRCHDU: Convergence failed at  79  side 2    Res =  0.1514E+03
 MRCHDU: Convergence failed at  80  side 2    Res =  0.3537E+02
 Side 1  free  transition at x/c =  0.3699   56
 Side 2  free  transition at x/c =  0.1695   40

   3   rms: 0.1214E+01   max: 0.5817E+01   T at   40  2   RLX: 0.178
       a =  2.000      CL =  0.5265
      Cm =  0.0339     CD =  0.01052   =>   CDf =  0.00611    CDp =  0.00441

 Side 1  free  transition at x/c =  0.3717   56
 Side 2  free  transition at x/c =  0.1577   39

   4   rms: 0.1717E+01   max: 0.2207E+02   T at   39  2   RLX: 0.041
       a =  2.000      CL =  0.6948
      Cm = -0.0242     CD =  0.02510   =>   CDf =  0.00649    CDp =  0.01861

 Side 1  free  transition at x/c =  0.3730   56
 Side 2  free  transition at x/c =  0.1505   39

   5   rms: 0.3454E+00   max: 0.1693E+01   T at   39  2   RLX: 0.508
       a =  2.000      CL =  0.7051
      Cm = -0.0666     CD =  0.02717   =>   CDf =  0.00646    CDp =  0.02071

 MRCHDU: Convergence failed at  56  side 1    Res =  0.2632E+01
 MRCHDU: Convergence failed at  57  side 1    Res =  0.2909E+01
 MRCHDU: Convergence failed at  58  side 1    Res =  0.7993E+01
 MRCHDU: Convergence failed at  59  side 1    Res =  0.3380E+03
 MRCHDU: Convergence failed at  60  side 1    Res =  0.2699E+02
 MRCHDU: Convergence failed at  61  side 1    Res =  0.2687E+02
 MRCHDU: Convergence failed at  62  side 1    Res =  0.4044E+02
 MRCHDU: Convergence failed at  63  side 1    Res =  0.1534E+03
 MRCHDU: Convergence failed at  64  side 1    Res =  0.8016E+02
 MRCHDU: Convergence failed at  65  side 1    Res =  0.3315E+02
 MRCHDU: Convergence failed at  66  side 1    Res =  0.2167E+02
 MRCHDU: Convergence failed at  67  side 1    Res =  0.1651E+02
 MRCHDU: Convergence failed at  68  side 1    Res =  0.1228E+02
 MRCHDU: Convergence failed at  69  side 1    Res =  0.1609E+02
 MRCHDU: Convergence failed at  70  side 1    Res =  0.2164E+02
 MRCHDU: Convergence failed at  71  side 1    Res =  0.3175E+02
 MRCHDU: Convergence failed at  72  side 1    Res =  0.5535E+02
 MRCHDU: Convergence failed at  73  side 1    Res =  0.2202E+03
 MRCHDU: Convergence failed at  74  side 1    Res =  0.1261E+03
 MRCHDU: Convergence failed at  75  side 1    Res =  0.6425E+02
 MRCHDU: Convergence failed at  76  side 1    Res =  0.3303E+02
 MRCHDU: Convergence failed at  77  side 1    Res =  0.2617E+02
 MRCHDU: Convergence failed at  78  side 1    Res =  0.1837E+02
 MRCHDU: Convergence failed at  79  side 1    Res =  0.2208E+02
 MRCHDU: Convergence failed at  80  side 1    Res =  0.3573E+02
 MRCHDU: Convergence failed at  81  side 1    Res =  0.4903E+02
 Side 1  free  transition at x/c =  0.3854   56
 Side 2  free  transition at x/c =  0.1448   39

   6   rms: 0.1018E+01   max: 0.5761E+01   D at   81  1   RLX: 0.224
       a =  2.000      CL =  1.0791
      Cm = -0.3059     CD =  0.02285   =>   CDf =  0.00345    CDp =  0.01940

 MRCHDU: Convergence failed at  84  side 2    Res =  0.1147E-01
 Side 1  free  transition at x/c =  0.3870   55
 Side 2  free  transition at x/c =  0.1366   39

   7   rms: 0.6393E+00   max: -.2669E+01   D at   68  2   RLX: 0.187
       a =  2.000      CL =  0.8877
      Cm = -0.2204     CD =  0.02340   =>   CDf =  0.00618    CDp =  0.01722

 MRCHDU: Convergence failed at  84  side 2    Res =  0.6613E-01
 Side 1  free  transition at x/c =  0.3907   55
 Side 2  free  transition at x/c =  0.1410   40

   8   rms: 0.3971E+00   max: -.1854E+01   D at   80  2   RLX: 0.270
       a =  2.000      CL =  0.8973
      Cm = -0.1954     CD =  0.01769   =>   CDf =  0.00634    CDp =  0.01136

 Side 1  free  transition at x/c =  0.3926   55
 Side 2  free  transition at x/c =  0.1424   40

   9   rms: 0.1384E+01   max: -.8262E+01   D at   67  1   RLX: 0.061
       a =  2.000      CL =  0.8622
      Cm = -0.1828     CD =  0.01636   =>   CDf =  0.00639    CDp =  0.00996

 MRCHDU: Convergence failed at  65  side 1    Res =  0.5088E+00
 MRCHDU: Convergence failed at  66  side 1    Res =  0.3571E+00
 MRCHDU: Convergence failed at  67  side 1    Res =  0.4019E+01
 MRCHDU: Convergence failed at  68  side 1    Res =  0.1386E+01
 MRCHDU: Convergence failed at  69  side 1    Res =  0.1408E+01
 MRCHDU: Convergence failed at  70  side 1    Res =  0.1150E+01
 Side 1  free  transition at x/c =  0.3974   56
 Side 2  free  transition at x/c =  0.1431   40

  10   rms: 0.6780E+00   max: -.3170E+01   T at   40  2   RLX: 0.158
       a =  2.000      CL =  1.0813
      Cm = -0.2533     CD =  0.01437   =>   CDf =  0.00837    CDp =  0.00600

 Side 1  free  transition at x/c =  0.3951   57
 Side 2  free  transition at x/c =  0.1498   40

  11   rms: 0.5827E+00   max: -.2340E+01   D at    2  1   RLX: 0.214
       a =  2.000      CL =  1.1358
      Cm = -0.2414     CD =  0.01317   =>   CDf =  0.00794    CDp =  0.00524

 MRCHDU: Convergence failed at  66  side 2    Res =  0.4257E-02
 Side 1  free  transition at x/c =  0.3921   56
 Side 2  free  transition at x/c =  0.1543   40

  12   rms: 0.6316E+00   max: -.2641E+01   D at   52  2   RLX: 0.189
       a =  2.000      CL =  1.1464
      Cm = -0.2290     CD =  0.01328   =>   CDf =  0.00784    CDp =  0.00545

 MRCHDU: Convergence failed at  65  side 2    Res =  0.9698E-01
 Side 1  free  transition at x/c =  0.3901   57
 Side 2  free  transition at x/c =  0.1596   40

  13   rms: 0.3419E+00   max: -.2086E+01   T at    2  1   RLX: 0.240
       a =  2.000      CL =  1.1490
      Cm = -0.2137     CD =  0.01489   =>   CDf =  0.00798    CDp =  0.00690

 MRCHDU: Convergence failed at  65  side 2    Res =  0.4345E-01
 Side 1  free  transition at x/c =  0.3876   57
 Side 2  free  transition at x/c =  0.1605   40

  14   rms: 0.2856E+00   max: -.1265E+01   D at   71  2   RLX: 0.395
       a =  2.000      CL =  1.1155
      Cm = -0.1882     CD =  0.01527   =>   CDf =  0.00796    CDp =  0.00731

 Side 1  free  transition at x/c =  0.3857   57
 Side 2  free  transition at x/c =  0.1600   40

  15   rms: 0.2639E+00   max: -.1741E+01   D at   69  2   RLX: 0.287
       a =  2.000      CL =  1.0940
      Cm = -0.1759     CD =  0.01626   =>   CDf =  0.00805    CDp =  0.00821

 MRCHDU: Convergence failed at  67  side 2    Res =  0.1278E+01
 Side 1  free  transition at x/c =  0.3850   57
 Side 2  free  transition at x/c =  0.1592   40

  16   rms: 0.1599E+00   max: 0.1174E+01   D at   65  2   RLX: 0.862
       a =  2.000      CL =  1.0666
      Cm = -0.1496     CD =  0.01956   =>   CDf =  0.00841    CDp =  0.01115

 Side 1  free  transition at x/c =  0.3825   57
 Side 2  free  transition at x/c =  0.1570   39

  17   rms: 0.5897E-01   max: 0.4292E+00   D at   40  2
       a =  2.000      CL =  1.0535
      Cm = -0.1444     CD =  0.02014   =>   CDf =  0.00786    CDp =  0.01228

 Side 1  free  transition at x/c =  0.3824   57
 Side 2  free  transition at x/c =  0.1549   39

  18   rms: 0.2691E-01   max: 0.1214E+00   D at   40  2
       a =  2.000      CL =  1.0527
      Cm = -0.1443     CD =  0.02010   =>   CDf =  0.00771    CDp =  0.01239

 Side 1  free  transition at x/c =  0.3824   57
 Side 2  free  transition at x/c =  0.1544   39

  19   rms: 0.2465E-02   max: 0.1514E-01   D at   41  2
       a =  2.000      CL =  1.0525
      Cm = -0.1442     CD =  0.02013   =>   CDf =  0.00761    CDp =  0.01253

 Side 1  free  transition at x/c =  0.3824   57
 Side 2  free  transition at x/c =  0.1543   39

  20   rms: 0.1069E-04   max: -.6210E-04   D at   59  2
       a =  2.000      CL =  1.0525
      Cm = -0.1442     CD =  0.02013   =>   CDf =  0.00760    CDp =  0.01253

 Point added to stored polar  1
 Point written to save file  000177M0.04.log                                 
 Dump file unspecified or not available
 Calculating wake trajectory ...
 Calculating source influence matrix ...

 Solving BL system ...

 Side 1  free  transition at x/c =  0.3824   57
 Side 2  free  transition at x/c =  0.1543   39

   1   rms: 0.1583E+00   max: -.8806E+00   T at   39  2   RLX: 0.568
       a =  3.000      CL =  1.1183
      Cm = -0.1442     CD =  0.01973   =>   CDf =  0.00740    CDp =  0.01234

 Side 1  free  transition at x/c =  0.3727   57
 Side 2  free  transition at x/c =  0.1627   39

   2   rms: 0.7275E-01   max: 0.3255E+00   D at   39  2
       a =  3.000      CL =  1.1651
      Cm = -0.1434     CD =  0.02011   =>   CDf =  0.00784    CDp =  0.01227

 Side 1  free  transition at x/c =  0.3653   58
 Side 2  free  transition at x/c =  0.1656   38

   3   rms: 0.1729E-01   max: -.8008E-01   D at   38  2
       a =  3.000      CL =  1.1657
      Cm = -0.1435     CD =  0.02009   =>   CDf =  0.00780    CDp =  0.01229

 Side 1  free  transition at x/c =  0.3653   58
 Side 2  free  transition at x/c =  0.1663   38

   4   rms: 0.2432E-03   max: 0.1820E-02   D at   40  2
       a =  3.000      CL =  1.1657
      Cm = -0.1435     CD =  0.02010   =>   CDf =  0.00786    CDp =  0.01225

 Side 1  free  transition at x/c =  0.3653   58
 Side 2  free  transition at x/c =  0.1663   38

   5   rms: 0.1175E-05   max: 0.8259E-05   D at   84  1
       a =  3.000      CL =  1.1657
      Cm = -0.1435     CD =  0.02010   =>   CDf =  0.00786    CDp =  0.01225

 Point added to stored polar  1
 Point written to save file  000177M0.04.log                                 
 Dump file unspecified or not available
 Calculating wake trajectory ...
 Calculating source influence matrix ...

 Solving BL system ...

 Side 1  free  transition at x/c =  0.3653   58
 Side 2  free  transition at x/c =  0.1663   38

   1   rms: 0.1446E+00   max: -.8618E+00   T at   38  2   RLX: 0.580
       a =  4.000      CL =  1.2306
      Cm = -0.1429     CD =  0.02012   =>   CDf =  0.00787    CDp =  0.01226

 Side 1  free  transition at x/c =  0.3550   58
 Side 2  free  transition at x/c =  0.1749   39

   2   rms: 0.6567E-01   max: 0.2739E+00   D at   39  2
       a =  4.000      CL =  1.2767
      Cm = -0.1425     CD =  0.02115   =>   CDf =  0.00798    CDp =  0.01317

 Side 1  free  transition at x/c =  0.3486   58
 Side 2  free  transition at x/c =  0.1792   38

   3   rms: 0.2417E-01   max: -.2062E+00   D at   58  1
       a =  4.000      CL =  1.2751
      Cm = -0.1422     CD =  0.02050   =>   CDf =  0.00805    CDp =  0.01245

 Side 1  free  transition at x/c =  0.3494   58
 Side 2  free  transition at x/c =  0.1796   38

   4   rms: 0.9825E-03   max: 0.8523E-02   D at   58  1
       a =  4.000      CL =  1.2756
      Cm = -0.1423     CD =  0.02053   =>   CDf =  0.00803    CDp =  0.01250

 Side 1  free  transition at x/c =  0.3491   58
 Side 2  free  transition at x/c =  0.1796   38

   5   rms: 0.1124E-04   max: -.6492E-04   D at   39  2
       a =  4.000      CL =  1.2756
      Cm = -0.1423     CD =  0.02053   =>   CDf =  0.00804    CDp =  0.01249

 Point added to stored polar  1
 Point written to save file  000177M0.04.log                                 
 Dump file unspecified or not available
 Calculating wake trajectory ...
 Calculating source influence matrix ...

 Solving BL system ...

 Side 1  free  transition at x/c =  0.3491   58
 Side 2  free  transition at x/c =  0.1796   38

   1   rms: 0.1382E+00   max: -.8552E+00   T at   38  2   RLX: 0.585
       a =  5.000      CL =  1.3388
      Cm = -0.1414     CD =  0.02081   =>   CDf =  0.00779    CDp =  0.01301

 Side 1  free  transition at x/c =  0.3392   59
 Side 2  free  transition at x/c =  0.1883   38

   2   rms: 0.5805E-01   max: -.3381E+00   T at   38  2
       a =  5.000      CL =  1.3826
      Cm = -0.1408     CD =  0.02127   =>   CDf =  0.00825    CDp =  0.01303

 Side 1  free  transition at x/c =  0.3349   58
 Side 2  free  transition at x/c =  0.1941   38

   3   rms: 0.2535E-01   max: -.1357E+00   D at   38  2
       a =  5.000      CL =  1.3821
      Cm = -0.1407     CD =  0.02126   =>   CDf =  0.00816    CDp =  0.01310

 Side 1  free  transition at x/c =  0.3339   58
 Side 2  free  transition at x/c =  0.1945   38

   4   rms: 0.6373E-03   max: 0.5958E-02   D at   40  2
       a =  5.000      CL =  1.3822
      Cm = -0.1407     CD =  0.02129   =>   CDf =  0.00818    CDp =  0.01310

 Side 1  free  transition at x/c =  0.3338   58
 Side 2  free  transition at x/c =  0.1945   38

   5   rms: 0.2905E-05   max: -.1661E-04   D at   39  2
       a =  5.000      CL =  1.3822
      Cm = -0.1407     CD =  0.02129   =>   CDf =  0.00818    CDp =  0.01310

 Point added to stored polar  1
 Point written to save file  000177M0.04.log                                 
 Dump file unspecified or not available
 Calculating wake trajectory ...
 Calculating source influence matrix ...

 Solving BL system ...

 Side 1  free  transition at x/c =  0.3338   58
 Side 2  free  transition at x/c =  0.1945   38

   1   rms: 0.1355E+00   max: -.8271E+00   T at   38  2   RLX: 0.605
       a =  6.000      CL =  1.4444
      Cm = -0.1396     CD =  0.02173   =>   CDf =  0.00792    CDp =  0.01381

 Side 1  free  transition at x/c =  0.3244   59
 Side 2  free  transition at x/c =  0.2044   38

   2   rms: 0.5435E-01   max: -.3323E+00   T at   38  2
       a =  6.000      CL =  1.4844
      Cm = -0.1388     CD =  0.02213   =>   CDf =  0.00797    CDp =  0.01416

 Side 1  free  transition at x/c =  0.3196   60
 Side 2  free  transition at x/c =  0.2104   37

   3   rms: 0.2531E-01   max: -.1595E+00   D at   37  2
       a =  6.000      CL =  1.4852
      Cm = -0.1389     CD =  0.02231   =>   CDf =  0.00824    CDp =  0.01407

 Side 1  free  transition at x/c =  0.3192   60
 Side 2  free  transition at x/c =  0.2112   37

   4   rms: 0.8554E-03   max: 0.7563E-02   D at   38  2
       a =  6.000      CL =  1.4851
      Cm = -0.1389     CD =  0.02232   =>   CDf =  0.00831    CDp =  0.01401

 Side 1  free  transition at x/c =  0.3191   60
 Side 2  free  transition at x/c =  0.2111   37

   5   rms: 0.4911E-05   max: 0.4880E-04   D at   38  2
       a =  6.000      CL =  1.4851
      Cm = -0.1389     CD =  0.02232   =>   CDf =  0.00831    CDp =  0.01401

 Point added to stored polar  1
 Point written to save file  000177M0.04.log                                 
 Dump file unspecified or not available
 Calculating wake trajectory ...
 Calculating source influence matrix ...

 Solving BL system ...

 Side 1  free  transition at x/c =  0.3191   60
 Side 2  free  transition at x/c =  0.2111   37

   1   rms: 0.1453E+00   max: -.8372E+00   T at   37  2   RLX: 0.597
       a =  7.000      CL =  1.5500
      Cm = -0.1384     CD =  0.02377   =>   CDf =  0.00832    CDp =  0.01545

 Side 1  free  transition at x/c =  0.3102   59
 Side 2  free  transition at x/c =  0.2238   38

   2   rms: 0.5677E-01   max: -.3514E+00   D at   59  1
       a =  7.000      CL =  1.5790
      Cm = -0.1362     CD =  0.02344   =>   CDf =  0.00800    CDp =  0.01543

 Side 1  free  transition at x/c =  0.3056   60
 Side 2  free  transition at x/c =  0.2288   37

   3   rms: 0.1285E-01   max: -.8187E-01   D at   37  2
       a =  7.000      CL =  1.5796
      Cm = -0.1363     CD =  0.02351   =>   CDf =  0.00821    CDp =  0.01530

 Side 1  free  transition at x/c =  0.3059   60
 Side 2  free  transition at x/c =  0.2295   37

   4   rms: 0.2950E-03   max: 0.1618E-02   D at   38  2
       a =  7.000      CL =  1.5798
      Cm = -0.1363     CD =  0.02351   =>   CDf =  0.00821    CDp =  0.01530

 Side 1  free  transition at x/c =  0.3059   60
 Side 2  free  transition at x/c =  0.2295   37

   5   rms: 0.3960E-05   max: 0.1578E-04   D at   83  1
       a =  7.000      CL =  1.5798
      Cm = -0.1363     CD =  0.02351   =>   CDf =  0.00821    CDp =  0.01530

 Point added to stored polar  1
 Point written to save file  000177M0.04.log                                 
 Dump file unspecified or not available
 Calculating wake trajectory ...
 Calculating source influence matrix ...

 Solving BL system ...

 Side 1  free  transition at x/c =  0.3059   60
 Side 2  free  transition at x/c =  0.2295   37

   1   rms: 0.1331E+00   max: -.7977E+00   T at   37  2   RLX: 0.627
       a =  8.000      CL =  1.6382
      Cm = -0.1346     CD =  0.02455   =>   CDf =  0.00792    CDp =  0.01663

 Side 1  free  transition at x/c =  0.2990   60
 Side 2  free  transition at x/c =  0.2436   37

   2   rms: 0.4901E-01   max: 0.3257E+00   D at   37  2
       a =  8.000      CL =  1.6629
      Cm = -0.1327     CD =  0.02526   =>   CDf =  0.00828    CDp =  0.01698

 Side 1  free  transition at x/c =  0.2930   60
 Side 2  free  transition at x/c =  0.2493   37

   3   rms: 0.7933E-02   max: -.5233E-01   D at   37  2
       a =  8.000      CL =  1.6644
      Cm = -0.1328     CD =  0.02529   =>   CDf =  0.00814    CDp =  0.01715

 Side 1  free  transition at x/c =  0.2932   60
 Side 2  free  transition at x/c =  0.2500   37

   4   rms: 0.1486E-03   max: 0.1014E-02   D at   38  2
       a =  8.000      CL =  1.6645
      Cm = -0.1328     CD =  0.02529   =>   CDf =  0.00814    CDp =  0.01716

 Side 1  free  transition at x/c =  0.2932   60
 Side 2  free  transition at x/c =  0.2500   37

   5   rms: 0.1936E-05   max: 0.1187E-04   T at   37  2
       a =  8.000      CL =  1.6645
      Cm = -0.1328     CD =  0.02529   =>   CDf =  0.00814    CDp =  0.01716

 Point added to stored polar  1
 Point written to save file  000177M0.04.log                                 
 Dump file unspecified or not available
 Calculating wake trajectory ...
 Calculating source influence matrix ...

 Solving BL system ...

 Side 1  free  transition at x/c =  0.2932   60
 Side 2  free  transition at x/c =  0.2500   37

   1   rms: 0.1236E+00   max: -.7755E+00   T at   37  2   RLX: 0.645
       a =  9.000      CL =  1.7106
      Cm = -0.1296     CD =  0.02655   =>   CDf =  0.00784    CDp =  0.01871

 Side 1  free  transition at x/c =  0.2855   60
 Side 2  free  transition at x/c =  0.2651   37

   2   rms: 0.4660E-01   max: 0.3789E+00   D at   37  2
       a =  9.000      CL =  1.7307
      Cm = -0.1279     CD =  0.02779   =>   CDf =  0.00827    CDp =  0.01951

 Side 1  free  transition at x/c =  0.2817   60
 Side 2  free  transition at x/c =  0.2710   37

   3   rms: 0.9298E-02   max: -.6558E-01   D at   37  2
       a =  9.000      CL =  1.7338
      Cm = -0.1283     CD =  0.02778   =>   CDf =  0.00808    CDp =  0.01970

 Side 1  free  transition at x/c =  0.2815   60
 Side 2  free  transition at x/c =  0.2721   37

   4   rms: 0.8865E-04   max: 0.9622E-03   D at   38  2
       a =  9.000      CL =  1.7339
      Cm = -0.1283     CD =  0.02779   =>   CDf =  0.00809    CDp =  0.01970

 Point added to stored polar  1
 Point written to save file  000177M0.04.log                                 
 Dump file unspecified or not available
 Calculating wake trajectory ...
 Calculating source influence matrix ...

 Solving BL system ...

 Side 1  free  transition at x/c =  0.2815   60
 Side 2  free  transition at x/c =  0.2721   37

   1   rms: 0.1231E+00   max: -.7667E+00   T at   37  2   RLX: 0.652
       a = 10.000      CL =  1.7711
      Cm = -0.1253     CD =  0.02993   =>   CDf =  0.00778    CDp =  0.02216

 Side 1  free  transition at x/c =  0.2738   61
 Side 2  free  transition at x/c =  0.2901   37

   2   rms: 0.5240E-01   max: 0.5882E+00   D at   37  2
       a = 10.000      CL =  1.7934
      Cm = -0.1243     CD =  0.03119   =>   CDf =  0.00801    CDp =  0.02318

 Side 1  free  transition at x/c =  0.2708   61
 Side 2  free  transition at x/c =  0.2958   37

   3   rms: 0.1056E-01   max: -.5284E-01   D at   38  2
       a = 10.000      CL =  1.8000
      Cm = -0.1246     CD =  0.03094   =>   CDf =  0.00807    CDp =  0.02288

 Side 1  free  transition at x/c =  0.2702   61
 Side 2  free  transition at x/c =  0.2972   37

   4   rms: 0.3839E-03   max: 0.2709E-02   D at   84  1
       a = 10.000      CL =  1.8002
      Cm = -0.1246     CD =  0.03097   =>   CDf =  0.00812    CDp =  0.02285

 Side 1  free  transition at x/c =  0.2702   61
 Side 2  free  transition at x/c =  0.2972   37

   5   rms: 0.1170E-04   max: 0.8007E-04   D at   38  2
       a = 10.000      CL =  1.8002
      Cm = -0.1246     CD =  0.03097   =>   CDf =  0.00813    CDp =  0.02285

 Point added to stored polar  1
 Point written to save file  000177M0.04.log                                 
 Dump file unspecified or not available
 Calculating wake trajectory ...
 Calculating source influence matrix ...

 Solving BL system ...

 Side 1  free  transition at x/c =  0.2702   61
 Side 2  free  transition at x/c =  0.2972   37

   1   rms: 0.1575E+00   max: -.1191E+01   T at   37  2   RLX: 0.420
       a = 11.000      CL =  1.8484
      Cm = -0.1240     CD =  0.03188   =>   CDf =  0.00780    CDp =  0.02407

 MRCHDU: Convergence failed at  38  side 2    Res =  0.4184E+01
 MRCHDU: Convergence failed at  39  side 2    Res =  0.4566E+01
 MRCHDU: Convergence failed at  40  side 2    Res =  0.3022E+01
 MRCHDU: Convergence failed at  41  side 2    Res =  0.5229E+01
 MRCHDU: Convergence failed at  42  side 2    Res =  0.7133E+01
 MRCHDU: Convergence failed at  43  side 2    Res =  0.8638E+01
 MRCHDU: Convergence failed at  44  side 2    Res =  0.9439E+01
 MRCHDU: Convergence failed at  45  side 2    Res =  0.9499E+01
 MRCHDU: Convergence failed at  46  side 2    Res =  0.8956E+01
 MRCHDU: Convergence failed at  47  side 2    Res =  0.7962E+01
 MRCHDU: Convergence failed at  48  side 2    Res =  0.6766E+01
 MRCHDU: Convergence failed at  49  side 2    Res =  0.5525E+01
 MRCHDU: Convergence failed at  50  side 2    Res =  0.4409E+01
 MRCHDU: Convergence failed at  51  side 2    Res =  0.3388E+01
 MRCHDU: Convergence failed at  52  side 2    Res =  0.2551E+01
 MRCHDU: Convergence failed at  53  side 2    Res =  0.5136E+01
 MRCHDU: Convergence failed at  54  side 2    Res =  0.4980E+01
 MRCHDU: Convergence failed at  55  side 2    Res =  0.1250E+02
 Side 1  free  transition at x/c =  0.2649   61
 Side 2  free  transition at x/c =  0.3166   37

   2   rms: 0.1513E+00   max: 0.7644E+00   T at   37  2   RLX: 0.662
       a = 11.000      CL =  1.8273
      Cm = -0.1195     CD =  0.03387   =>   CDf =  0.00736    CDp =  0.02651

 MRCHDU: Convergence failed at  43  side 2    Res =  0.4547E-03
 Side 1  free  transition at x/c =  0.2616   61
 Side 2  free  transition at x/c =  0.3028   37

   3   rms: 0.1308E+00   max: -.9111E+00   D at   46  2   RLX: 0.549
       a = 11.000      CL =  1.8397
      Cm = -0.1213     CD =  0.03643   =>   CDf =  0.00776    CDp =  0.02868

 Side 1  free  transition at x/c =  0.2607   61
 Side 2  free  transition at x/c =  0.3117   37

   4   rms: 0.1767E+00   max: -.1199E+01   D at   46  2   RLX: 0.417
       a = 11.000      CL =  1.8413
      Cm = -0.1213     CD =  0.03638   =>   CDf =  0.00765    CDp =  0.02873

 Side 1  free  transition at x/c =  0.2604   61
 Side 2  free  transition at x/c =  0.3248   38

   5   rms: 0.1092E+00   max: -.1162E+01   D at   46  2   RLX: 0.430
       a = 11.000      CL =  1.8410
      Cm = -0.1212     CD =  0.03600   =>   CDf =  0.00773    CDp =  0.02827

 Side 1  free  transition at x/c =  0.2602   61
 Side 2  free  transition at x/c =  0.3269   38

   6   rms: 0.8222E-01   max: -.9145E+00   D at   46  2   RLX: 0.547
       a = 11.000      CL =  1.8415
      Cm = -0.1212     CD =  0.03603   =>   CDf =  0.00771    CDp =  0.02831

 Side 1  free  transition at x/c =  0.2601   61
 Side 2  free  transition at x/c =  0.3265   38

   7   rms: 0.5048E-01   max: -.5309E+00   D at   47  2   RLX: 0.942
       a = 11.000      CL =  1.8415
      Cm = -0.1212     CD =  0.03608   =>   CDf =  0.00772    CDp =  0.02836

 Side 1  free  transition at x/c =  0.2600   61
 Side 2  free  transition at x/c =  0.3241   38

   8   rms: 0.9603E-02   max: -.9022E-01   D at   47  2
       a = 11.000      CL =  1.8413
      Cm = -0.1211     CD =  0.03609   =>   CDf =  0.00775    CDp =  0.02835

 Side 1  free  transition at x/c =  0.2600   61
 Side 2  free  transition at x/c =  0.3232   38

   9   rms: 0.2108E-03   max: -.3006E-02   D at   42  2
       a = 11.000      CL =  1.8413
      Cm = -0.1211     CD =  0.03609   =>   CDf =  0.00776    CDp =  0.02834

 Side 1  free  transition at x/c =  0.2600   61
 Side 2  free  transition at x/c =  0.3232   38

  10   rms: 0.8249E-06   max: 0.3977E-05   D at    2  2
       a = 11.000      CL =  1.8413
      Cm = -0.1211     CD =  0.03609   =>   CDf =  0.00776    CDp =  0.02834

 Point added to stored polar  1
 Point written to save file  000177M0.04.log                                 
 Dump file unspecified or not available
 Calculating wake trajectory ...
 Calculating source influence matrix ...

 Solving BL system ...

 Side 1  free  transition at x/c =  0.2600   61
 Side 2  free  transition at x/c =  0.3232   38

   1   rms: 0.1281E+00   max: -.9959E+00   T at   38  2   RLX: 0.502
       a = 12.000      CL =  1.8665
      Cm = -0.1199     CD =  0.03864   =>   CDf =  0.00744    CDp =  0.03120

 Side 1  free  transition at x/c =  0.2551   61
 Side 2  free  transition at x/c =  0.3368   37

   2   rms: 0.7369E-01   max: -.5513E+00   T at   37  2   RLX: 0.907
       a = 12.000      CL =  1.8713
      Cm = -0.1182     CD =  0.04268   =>   CDf =  0.00787    CDp =  0.03481

 MRCHDU: Convergence failed at  39  side 2    Res =  0.1910E+01
 MRCHDU: Convergence failed at  40  side 2    Res =  0.8760E+01
 MRCHDU: Convergence failed at  41  side 2    Res =  0.4052E+01
 MRCHDU: Convergence failed at  42  side 2    Res =  0.4083E+01
 MRCHDU: Convergence failed at  43  side 2    Res =  0.4090E+01
 MRCHDU: Convergence failed at  44  side 2    Res =  0.4128E+01
 MRCHDU: Convergence failed at  45  side 2    Res =  0.4070E+01
 MRCHDU: Convergence failed at  46  side 2    Res =  0.3931E+01
 MRCHDU: Convergence failed at  47  side 2    Res =  0.3775E+01
 MRCHDU: Convergence failed at  48  side 2    Res =  0.3864E+01
 MRCHDU: Convergence failed at  49  side 2    Res =  0.3721E+01
 MRCHDU: Convergence failed at  50  side 2    Res =  0.3623E+01
 Side 1  free  transition at x/c =  0.2505   61
 Side 2  free  transition at x/c =  0.3549   38

   3   rms: 0.9095E-01   max: -.6765E+00   D at   50  2   RLX: 0.739
       a = 12.000      CL =  1.8747
      Cm = -0.1175     CD =  0.04215   =>   CDf =  0.00714    CDp =  0.03501

 Side 1  free  transition at x/c =  0.2500   61
 Side 2  free  transition at x/c =  0.3431   38

   4   rms: 0.6278E-01   max: -.7161E+00   D at   40  2   RLX: 0.698
       a = 12.000      CL =  1.8796
      Cm = -0.1183     CD =  0.04232   =>   CDf =  0.00768    CDp =  0.03464

 Side 1  free  transition at x/c =  0.2499   61
 Side 2  free  transition at x/c =  0.3501   38

   5   rms: 0.3653E-01   max: -.5126E+00   D at   40  2   RLX: 0.976
       a = 12.000      CL =  1.8811
      Cm = -0.1185     CD =  0.04219   =>   CDf =  0.00756    CDp =  0.03463

 Side 1  free  transition at x/c =  0.2498   61
 Side 2  free  transition at x/c =  0.3567   38

   6   rms: 0.5914E-02   max: -.1123E+00   D at   40  2
       a = 12.000      CL =  1.8814
      Cm = -0.1186     CD =  0.04220   =>   CDf =  0.00755    CDp =  0.03465

 Side 1  free  transition at x/c =  0.2498   61
 Side 2  free  transition at x/c =  0.3560   38

   7   rms: 0.3268E-03   max: -.6953E-02   D at   40  2
       a = 12.000      CL =  1.8814
      Cm = -0.1186     CD =  0.04220   =>   CDf =  0.00754    CDp =  0.03465

 Side 1  free  transition at x/c =  0.2498   61
 Side 2  free  transition at x/c =  0.3559   38

   8   rms: 0.1960E-05   max: -.3076E-04   D at   40  2
       a = 12.000      CL =  1.8814
      Cm = -0.1186     CD =  0.04220   =>   CDf =  0.00754    CDp =  0.03465

 Point added to stored polar  1
 Point written to save file  000177M0.04.log                                 
 Dump file unspecified or not available
 Calculating wake trajectory ...
 Calculating source influence matrix ...

 Solving BL system ...

 Side 1  free  transition at x/c =  0.2498   61
 Side 2  free  transition at x/c =  0.3559   38

   1   rms: 0.1218E+00   max: -.7839E+00   T at   38  2   RLX: 0.638
       a = 13.000      CL =  1.8991
      Cm = -0.1174     CD =  0.04725   =>   CDf =  0.00722    CDp =  0.04002

 MRCHDU: Convergence failed at  39  side 2    Res =  0.1093E+02
 MRCHDU: Convergence failed at  40  side 2    Res =  0.3455E+01
 MRCHDU: Convergence failed at  41  side 2    Res =  0.9631E+01
 MRCHDU: Convergence failed at  42  side 2    Res =  0.7706E+02
 MRCHDU: Convergence failed at  43  side 2    Res =  0.3209E+03
 MRCHDU: Convergence failed at  44  side 2    Res =  0.1346E+03
 MRCHDU: Convergence failed at  45  side 2    Res =  0.1711E+03
 MRCHDU: Convergence failed at  46  side 2    Res =  0.2691E+02
 MRCHDU: Convergence failed at  47  side 2    Res =  0.1094E+02
 MRCHDU: Convergence failed at  48  side 2    Res =  0.4498E+01
 Side 1  free  transition at x/c =  0.2433   62
 Side 2  free  transition at x/c =  0.3852   39

   2   rms: 0.1448E+00   max: -.1050E+01   D at   47  2   RLX: 0.476
       a = 13.000      CL =  1.9025
      Cm = -0.1146     CD =  0.04785   =>   CDf =  0.00705    CDp =  0.04079

 Side 1  free  transition at x/c =  0.2420   62
 Side 2  free  transition at x/c =  0.3962   39

   3   rms: 0.3930E-01   max: -.5058E+00   D at   40  2   RLX: 0.988
       a = 13.000      CL =  1.9315
      Cm = -0.1164     CD =  0.04762   =>   CDf =  0.00752    CDp =  0.04010

 Side 1  free  transition at x/c =  0.2405   61
 Side 2  free  transition at x/c =  0.4053   40

   4   rms: 0.1305E-01   max: 0.1877E+00   D at   40  2
       a = 13.000      CL =  1.9267
      Cm = -0.1165     CD =  0.04817   =>   CDf =  0.00748    CDp =  0.04069

 Side 1  free  transition at x/c =  0.2402   61
 Side 2  free  transition at x/c =  0.4023   40

   5   rms: 0.1172E-02   max: 0.1279E-01   D at   40  2
       a = 13.000      CL =  1.9268
      Cm = -0.1165     CD =  0.04812   =>   CDf =  0.00745    CDp =  0.04067

 Side 1  free  transition at x/c =  0.2402   61
 Side 2  free  transition at x/c =  0.4019   40

   6   rms: 0.1031E-04   max: -.1865E-03   D at   42  2
       a = 13.000      CL =  1.9268
      Cm = -0.1165     CD =  0.04812   =>   CDf =  0.00745    CDp =  0.04067

 Point added to stored polar  1
 Point written to save file  000177M0.04.log                                 
 Dump file unspecified or not available
 Calculating wake trajectory ...
 Calculating source influence matrix ...

 Solving BL system ...

 Side 1  free  transition at x/c =  0.2402   61
 Side 2  free  transition at x/c =  0.4019   40

   1   rms: 0.1426E+00   max: -.6942E+00   T at   40  2   RLX: 0.703
       a = 14.000      CL =  1.9140
      Cm = -0.1162     CD =  0.05737   =>   CDf =  0.00712    CDp =  0.05025

 Side 1  free  transition at x/c =  0.2334   62
 Side 2  free  transition at x/c =  0.4294   40

   2   rms: 0.4873E-01   max: -.4253E+00   T at   40  2
       a = 14.000      CL =  1.9292
      Cm = -0.1158     CD =  0.05895   =>   CDf =  0.00708    CDp =  0.05187

 Side 1  free  transition at x/c =  0.2307   62
 Side 2  free  transition at x/c =  0.4650   42

   3   rms: 0.3140E-01   max: -.5606E+00   C at   42  2   RLX: 0.892
       a = 14.000      CL =  1.9327
      Cm = -0.1158     CD =  0.05839   =>   CDf =  0.00699    CDp =  0.05140

 Side 1  free  transition at x/c =  0.2308   62
 Side 2  free  transition at x/c =  0.4749   43

   4   rms: 0.2390E-01   max: -.4129E+00   C at   43  2
       a = 14.000      CL =  1.9340
      Cm = -0.1159     CD =  0.05832   =>   CDf =  0.00699    CDp =  0.05133

 Side 1  free  transition at x/c =  0.2308   62
 Side 2  free  transition at x/c =  0.4895   43

   5   rms: 0.1315E-02   max: -.1865E-01   D at   43  2
       a = 14.000      CL =  1.9340
      Cm = -0.1159     CD =  0.05833   =>   CDf =  0.00695    CDp =  0.05139

 Side 1  free  transition at x/c =  0.2308   62
 Side 2  free  transition at x/c =  0.4881   43

   6   rms: 0.7084E-04   max: -.1345E-02   C at   43  2
       a = 14.000      CL =  1.9340
      Cm = -0.1159     CD =  0.05833   =>   CDf =  0.00695    CDp =  0.05138

 Point added to stored polar  1
 Point written to save file  000177M0.04.log                                 
 Dump file unspecified or not available
 Calculating wake trajectory ...
 Calculating source influence matrix ...

 Solving BL system ...

 Side 1  free  transition at x/c =  0.2308   62
 Side 2  free  transition at x/c =  0.4881   43

   1   rms: 0.4531E+00   max: -.8528E+01   C at   43  2   RLX: 0.059
       a = 15.000      CL =  1.9357
      Cm = -0.1159     CD =  0.05878   =>   CDf =  0.00698    CDp =  0.05180

 Side 1  free  transition at x/c =  0.2303   62
 Side 2  free  transition at x/c =  0.5022   44

   2   rms: 0.7357E+00   max: -.1410E+02   C at   44  2   RLX: 0.035
       a = 15.000      CL =  1.9375
      Cm = -0.1159     CD =  0.05897   =>   CDf =  0.00697    CDp =  0.05201

 Side 1  free  transition at x/c =  0.2301   62
 Side 2  free  transition at x/c =  0.5100   44

   3   rms: 0.2654E+00   max: -.4644E+01   C at   44  2   RLX: 0.108
       a = 15.000      CL =  1.9429
      Cm = -0.1159     CD =  0.05958   =>   CDf =  0.00697    CDp =  0.05261

 Side 1  free  transition at x/c =  0.2292   62
 Side 2 forced transition at x/c =  1.0001   66

   4   rms: 0.1948E+00   max: -.8317E+00   n at   65  2   RLX: 0.601
       a = 15.000      CL =  1.9740
      Cm = -0.1143     CD =  0.06092   =>   CDf =  0.00621    CDp =  0.05471

 Side 1  free  transition at x/c =  0.2257   62
 Side 2 forced transition at x/c =  1.0001   65

   5   rms: 0.7958E-01   max: 0.3687E+00   D at   81  1
       a = 15.000      CL =  1.9232
      Cm = -0.1160     CD =  0.07170   =>   CDf =  0.00668    CDp =  0.06502

 Side 1  free  transition at x/c =  0.2216   62
 Side 2 forced transition at x/c =  1.0001   65

   6   rms: 0.1671E-01   max: -.9105E-01   D at   81  1
       a = 15.000      CL =  1.9362
      Cm = -0.1153     CD =  0.06893   =>   CDf =  0.00630    CDp =  0.06262

 Side 1  free  transition at x/c =  0.2217   62
 Side 2 forced transition at x/c =  1.0001   65

   7   rms: 0.1550E-02   max: -.7954E-02   D at   77  1
       a = 15.000      CL =  1.9376
      Cm = -0.1153     CD =  0.06903   =>   CDf =  0.00633    CDp =  0.06270

 Side 1  free  transition at x/c =  0.2217   62
 Side 2 forced transition at x/c =  1.0001   65

   8   rms: 0.5392E-04   max: -.3543E-03   D at   78  2
       a = 15.000      CL =  1.9376
      Cm = -0.1153     CD =  0.06905   =>   CDf =  0.00633    CDp =  0.06271

 Point added to stored polar  1
 Point written to save file  000177M0.04.log                                 
 Dump file unspecified or not available

.OPERva   c>  
 XFOIL   c>  
0.1
resp: 
 ===================================================
  XFOIL Version 6.97
  Copyright (C) 2000   Mark Drela, Harold Youngren

  This software comes with ABSOLUTELY NO WARRANTY,
    subject to the GNU General Public License.

  Caveat computor
 ===================================================

 File  xfoil.def  not found

   QUIT    Exit program

  .OPER    Direct operating point(s)
  .MDES    Complex mapping design routine
  .QDES    Surface speed design routine
  .GDES    Geometry design routine

   SAVE f  Write airfoil to labeled coordinate file
   PSAV f  Write airfoil to plain coordinate file
   ISAV f  Write airfoil to ISES coordinate file
   MSAV f  Write airfoil to MSES coordinate file
   REVE    Reverse written-airfoil node ordering
   DELI i  Change written-airfoil file delimiters

   LOAD f  Read buffer airfoil from coordinate file
   NACA i  Set NACA 4,5-digit airfoil and buffer airfoil
   INTE    Set buffer airfoil by interpolating two airfoils
   NORM    Buffer airfoil normalization toggle
   HALF    Halve the number of points in buffer airfoil
   XYCM rr Change CM reference location, currently  0.25000 0.00000

   BEND    Display structural properties of current airfoil

   PCOP    Set current-airfoil panel nodes directly from buffer airfoil points
   PANE    Set current-airfoil panel nodes ( 160 ) based on curvature
  .PPAR    Show/change paneling

  .PLOP    Plotting options

   WDEF f  Write  current-settings file
   RDEF f  Reread current-settings file
   NAME s  Specify new airfoil name
   NINC    Increment name version number

   Z       Zoom    | (available in all menus)
   U       Unzoom  | 

 XFOIL   c>   ...............................................

  G raphics-enable flag:        T
  S ize of plot object          10.00"
  A spect ratio of plot object   0.5500
  P age dimensions              11.00 x  8.50"
  M argins from page edges       0.00",  0.00"
  F ont size (relative)          0.0150
  W indow/screen size fraction   0.8000
  B lowup input method:        Cursor    
  O rientation of plot:        Landscape 
  C olor PostScript output?     F

      Option, Value   (or <Return>)    c>   ...............................................

  G raphics-enable flag:        F
  S ize of plot object          10.00"
  A spect ratio of plot object   0.5500
  P age dimensions              11.00 x  8.50"
  M argins from page edges       0.00",  0.00"
  F ont size (relative)          0.0150
  W indow/screen size fraction   0.8000
  B lowup input method:        Cursor    
  O rientation of plot:        Landscape 
  C olor PostScript output?     F

      Option, Value   (or <Return>)    c>  
 XFOIL   c>  
 Labeled airfoil file.  Name:  000177                                          

 Number of input coordinate points: 200
 Clockwise ordering
 Max thickness =     0.199120  at x =   0.146
 Max camber    =     0.090489  at x =   0.422

  LE  x,y  =  -0.00000   0.00079  |   Chord =   0.99988
  TE  x,y  =   0.99988   0.00003  |

 Current airfoil nodes set from buffer airfoil nodes ( 200 )

 XFOIL   c>  
 You are working with the buffer airfoil

.GDES   c>  
  i       x        y      angle
   2   0.9990   0.0002   -0.013
   3   0.9978   0.0005   -0.069
   4   0.9961   0.0009   -0.055
   5   0.9938   0.0014   -0.045
   6   0.9911   0.0020   -0.103
   7   0.9880   0.0028   -0.096
   8   0.9843   0.0036   -0.091
   9   0.9801   0.0046   -0.121
  10   0.9755   0.0057   -0.132
  11   0.9704   0.0069   -0.131
  12   0.9649   0.0083   -0.149
  13   0.9589   0.0097   -0.142
  14   0.9524   0.0114   -0.155
  15   0.9455   0.0131   -0.167
  16   0.9382   0.0150   -0.153
  17   0.9304   0.0170   -0.169
  18   0.9222   0.0191   -0.159
  19   0.9135   0.0214   -0.164
  20   0.9045   0.0238   -0.165
  21   0.8951   0.0263   -0.151
  22   0.8853   0.0290   -0.160
  23   0.8751   0.0318   -0.136
  24   0.8645   0.0347   -0.143
  25   0.8536   0.0378   -0.129
  26   0.8423   0.0410   -0.115
  27   0.8307   0.0443   -0.111
  28   0.8187   0.0477   -0.090
  29   0.8065   0.0512   -0.078
  30   0.7939   0.0549   -0.065
  31   0.7810   0.0586   -0.044
  32   0.7679   0.0625   -0.028
  33   0.7545   0.0664   -0.012
  34   0.7409   0.0704    0.014
  35   0.7270   0.0745    0.027
  36   0.7129   0.0786    0.054
  37   0.6986   0.0827    0.080
  38   0.6841   0.0870    0.102
  39   0.6694   0.0912    0.126
  40   0.6545   0.0954    0.152
  41   0.6395   0.0997    0.183
  42   0.6243   0.1039    0.213
  43   0.6091   0.1081    0.235
  44   0.5937   0.1123    0.273
  45   0.5782   0.1164    0.297
  46   0.5627   0.1204    0.339
  47   0.5471   0.1244    0.367
  48   0.5314   0.1282    0.399
  49   0.5157   0.1320    0.441
  50   0.5000   0.1356    0.475
  51   0.4843   0.1391    0.515
  52   0.4686   0.1425    0.552
  53   0.4529   0.1456    0.596
  54   0.4373   0.1487    0.637
  55   0.4218   0.1515    0.680
  56   0.4063   0.1541    0.727
  57   0.3909   0.1565    0.771
  58   0.3757   0.1586    0.823
  59   0.3605   0.1606    0.867
  60   0.3455   0.1622    0.931
  61   0.3306   0.1637    0.975
  62   0.3159   0.1648    1.033
  63   0.3014   0.1657    1.095
  64   0.2871   0.1663    1.154
  65   0.2730   0.1666    1.215
  66   0.2591   0.1666    1.281
  67   0.2455   0.1663    1.349
  68   0.2321   0.1656    1.423
  69   0.2190   0.1647    1.487
  70   0.2061   0.1635    1.569
  71   0.1935   0.1619    1.641
  72   0.1813   0.1600    1.727
  73   0.1693   0.1578    1.807
  74   0.1577   0.1553    1.886
  75   0.1464   0.1524    1.982
  76   0.1355   0.1492    2.062
  77   0.1249   0.1457    2.157
  78   0.1147   0.1420    2.248
  79   0.1049   0.1379    2.339
  80   0.0955   0.1335    2.438
  81   0.0865   0.1288    2.519
  82   0.0778   0.1238    2.628
  83   0.0696   0.1186    2.708
  84   0.0618   0.1131    2.804
  85   0.0545   0.1073    2.884
  86   0.0476   0.1013    2.985
  87   0.0411   0.0951    3.056
  88   0.0351   0.0887    3.134
  89   0.0296   0.0820    3.211
  90   0.0245   0.0752    3.275
  91   0.0199   0.0682    3.343
  92   0.0157   0.0610    3.402
  93   0.0120   0.0537    3.442
  94   0.0089   0.0463    3.501
  95   0.0062   0.0387    3.527
  96   0.0039   0.0311    3.558
  97   0.0022   0.0234    3.591
  98   0.0010   0.0156    3.599
  99   0.0002   0.0078    3.612
 100   0.0000   0.0000    4.454
 101   0.0002  -0.0054    5.299
 102   0.0010  -0.0107    5.352
 103   0.0022  -0.0159    5.455
 104   0.0039  -0.0209    5.543
 105   0.0062  -0.0258    5.668
 106   0.0089  -0.0305    5.781
 107   0.0120  -0.0350    5.825
 108   0.0157  -0.0391    5.868
 109   0.0199  -0.0429    5.802
 110   0.0245  -0.0464    5.683
 111   0.0296  -0.0494    5.473
 112   0.0351  -0.0521    5.203
 113   0.0411  -0.0543    4.874
 114   0.0476  -0.0561    4.525
 115   0.0545  -0.0575    4.124
 116   0.0618  -0.0583    3.748
 117   0.0696  -0.0588    3.350
 118   0.0778  -0.0587    2.989
 119   0.0865  -0.0583    2.648
 120   0.0955  -0.0573    2.311
 121   0.1049  -0.0560    2.023
 122   0.1147  -0.0542    1.735
 123   0.1249  -0.0521    1.484
 124   0.1355  -0.0495    1.250
 125   0.1464  -0.0467    1.036
 126   0.1577  -0.0435    0.836
 127   0.1693  -0.0401    0.647
 128   0.1813  -0.0364    0.485
 129   0.1935  -0.0325    0.320
 130   0.2061  -0.0284    0.181
 131   0.2190  -0.0242    0.039
 132   0.2321  -0.0199   -0.079
 133   0.2455  -0.0155   -0.203
 134   0.2591  -0.0111   -0.314
 135   0.2730  -0.0067   -0.406
 136   0.2871  -0.0023   -0.510
 137   0.3014   0.0020   -0.588
 138   0.3159   0.0062   -0.669
 139   0.3306   0.0102   -0.742
 140   0.3455   0.0141   -0.801
 141   0.3605   0.0179   -0.860
 142   0.3757   0.0214   -0.905
 143   0.3909   0.0246   -0.948
 144   0.4063   0.0277   -0.981
 145   0.4218   0.0305   -0.998
 146   0.4373   0.0330   -1.023
 147   0.4529   0.0352   -1.026
 148   0.4686   0.0372   -1.030
 149   0.4843   0.0389   -1.025
 150   0.5000   0.0403   -1.011
 151   0.5157   0.0414   -0.993
 152   0.5314   0.0422   -0.969
 153   0.5471   0.0428   -0.940
 154   0.5627   0.0431   -0.905
 155   0.5782   0.0432   -0.861
 156   0.5937   0.0431   -0.827
 157   0.6091   0.0427   -0.774
 158   0.6243   0.0421   -0.731
 159   0.6395   0.0413   -0.677
 160   0.6545   0.0404   -0.631
 161   0.6694   0.0393   -0.575
 162   0.6841   0.0380   -0.522
 163   0.6986   0.0367   -0.473
 164   0.7129   0.0352   -0.424
 165   0.7270   0.0337   -0.364
 166   0.7409   0.0321   -0.321
 167   0.7545   0.0305   -0.268
 168   0.7679   0.0288   -0.224
 169   0.7810   0.0271   -0.176
 170   0.7939   0.0254   -0.137
 171   0.8065   0.0237   -0.092
 172   0.8187   0.0220   -0.061
 173   0.8307   0.0203   -0.015
 174   0.8423   0.0187    0.011
 175   0.8536   0.0172    0.046
 176   0.8645   0.0157    0.068
 177   0.8751   0.0142    0.097
 178   0.8853   0.0129    0.114
 179   0.8951   0.0116    0.133
 180   0.9045   0.0103    0.158
 181   0.9135   0.0092    0.164
 182   0.9222   0.0081    0.173
 183   0.9304   0.0071    0.185
 184   0.9382   0.0062    0.185
 185   0.9455   0.0053    0.185
 186   0.9524   0.0046    0.194
 187   0.9589   0.0039    0.181
 188   0.9649   0.0033    0.183
 189   0.9704   0.0027    0.177
 190   0.9755   0.0022    0.157
 191   0.9801   0.0017    0.159
 192   0.9843   0.0014    0.147
 193   0.9880   0.0010    0.119
 194   0.9911   0.0007    0.108
 195   0.9938   0.0005    0.076
 196   0.9961   0.0003    0.114
 197   0.9978   0.0002    0.009
 198   0.9990   0.0001    0.097
 199   0.9998   0.0000    0.006

 Maximum panel corner angle =  5.868   at  i,x,y  = 108   0.0157  -0.0391

 Enter corner angle criterion for refinement (deg):   2.934
 Enter type of spline parameter (1=uniform, 2=arclength):   1
 Enter refinement x limits:  -0.10000   1.10000
 Number of points added:           66
 Max thickness =     0.199078  at x =   0.146
 Max camber    =     0.090949  at x =   0.422

 Maximum panel corner angle =  2.804   at  i,x,y  =  84   0.0618   0.1131

.GDES   c>  
 Buffer airfoil is not identical to current airfoil

 XFOIL   c>  
 Blunt trailing edge.  Gap =  0.00025

 Paneling parameters used...
   Number of panel nodes       160
   Panel bunching parameter    1.000
   TE/LE panel density ratio   0.150
   Refined-area/LE panel density ratio    0.200
   Top    side refined area x/c limits  1.000 1.000
   Bottom side refined area x/c limits  1.000 1.000

 XFOIL   c>  
.OPERi   c>   Current iteration limit:          20

Enter new iteration limit   i>  
Enter new iteration limit   i>  
Enter new iteration limit   i>  
.OPERi   c>  
 M  =    0.0000
 Re =  0.3000E+06

.OPERv   c>  
 Sonic Cp =    -66.86      Sonic Q/Qinf =     9.138


.OPERv   c>  
 Polar  1 newly created for accumulation
 Airfoil archived with polar: 000177                                          

Enter  polar save filename  OR  <return> for no file   s>  
 New polar save file available

Enter  polar dump filename  OR  <return> for no file   s>  
 Polar dump file will NOT be written

 Polar accumulation enabled

.OPERva   c>   Calculating unit vorticity distributions ...
 Calculating wake trajectory ...
 Calculating source influence matrix ...

 Solving BL system ...

 Initializing BL ...
    side            1  ...
 MRCHUE: Inverse mode at  50     Hk =   4.119
 MRCHUE: Inverse mode at  51     Hk =   4.995
 MRCHUE: Inverse mode at  52     Hk =   5.872
 MRCHUE: Inverse mode at  53     Hk =   6.756
 MRCHUE: Inverse mode at  54     Hk =   7.653
 MRCHUE: Inverse mode at  55     Hk =   8.566
 MRCHUE: Inverse mode at  56     Hk =   9.040
 MRCHUE: Inverse mode at  57     Hk =   4.565
 MRCHUE: Inverse mode at  58     Hk =   2.554
 MRCHUE: Convergence failed at  83  side 1    Res =  0.5689E+01
    side            2  ...
 MRCHUE: Inverse mode at  30     Hk =   3.800
 MRCHUE: Inverse mode at  31     Hk =   4.391
 MRCHUE: Inverse mode at  32     Hk =   4.982
 MRCHUE: Inverse mode at  33     Hk =   5.583
 MRCHUE: Inverse mode at  34     Hk =   6.199
 MRCHUE: Inverse mode at  35     Hk =   6.840
 MRCHUE: Inverse mode at  36     Hk =   7.513
 MRCHUE: Inverse mode at  37     Hk =   8.227
 MRCHUE: Inverse mode at  38     Hk =   8.991
 MRCHUE: Inverse mode at  39     Hk =   9.818
 MRCHUE: Inverse mode at  40     Hk =   6.216
 MRCHUE: Inverse mode at  41     Hk =   3.649
 MRCHUE: Inverse mode at  42     Hk =   2.500
 MRCHUE: Inverse mode at  43     Hk =   2.500
 MRCHUE: Inverse mode at  44     Hk =   2.500
 MRCHUE: Inverse mode at  45     Hk =   2.500
 MRCHUE: Inverse mode at  46     Hk =   2.500
 MRCHUE: Inverse mode at  47     Hk =   2.500
 MRCHUE: Inverse mode at  48     Hk =   2.500
 MRCHUE: Inverse mode at  49     Hk =   2.500
 MRCHUE: Inverse mode at  50     Hk =   2.500
 MRCHUE: Inverse mode at  51     Hk =   2.500
 MRCHUE: Inverse mode at  52     Hk =   2.500
 MRCHUE: Inverse mode at  53     Hk =   2.500
 MRCHUE: Inverse mode at  54     Hk =   2.500
 MRCHUE: Inverse mode at  55     Hk =   2.500
 MRCHUE: Inverse mode at  56     Hk =   2.500
 MRCHUE: Inverse mode at  57     Hk =   2.500
 MRCHUE: Convergence failed at  79  side 2    Res =  0.8304E+00

 MRCHDU: Convergence failed at  83  side 1    Res =  0.6156E+01
 Side 1  free  transition at x/c =  0.3536   56
 Side 2  free  transition at x/c =  0.1738   40

   1   rms: 0.5325E+00   max: -.2048E+01   D at   51  2   RLX: 0.244
       a =  2.000      CL =  1.0991
      Cm = -0.1565     CD =  0.01088   =>   CDf =  0.00790    CDp =  0.00298

 Side 1  free  transition at x/c =  0.3609   57
 Side 2  free  transition at x/c =  0.1723   40

   2   rms: 0.3368E+00   max: -.1359E+01   D at   55  2   RLX: 0.368
       a =  2.000      CL =  1.0823
      Cm = -0.1527     CD =  0.01226   =>   CDf =  0.00808    CDp =  0.00418

 MRCHDU: Convergence failed at  41  side 2    Res =  0.6300E+01
 MRCHDU: Convergence failed at  42  side 2    Res =  0.5159E+01
 MRCHDU: Convergence failed at  43  side 2    Res =  0.4634E+02
 MRCHDU: Convergence failed at  44  side 2    Res =  0.9288E+01
 MRCHDU: Convergence failed at  45  side 2    Res =  0.1697E+02
 MRCHDU: Convergence failed at  46  side 2    Res =  0.4729E+02
 MRCHDU: Convergence failed at  47  side 2    Res =  0.1771E+02
 MRCHDU: Convergence failed at  48  side 2    Res =  0.7708E+02
 MRCHDU: Convergence failed at  49  side 2    Res =  0.2263E+02
 MRCHDU: Convergence failed at  50  side 2    Res =  0.1760E+02
 MRCHDU: Convergence failed at  51  side 2    Res =  0.2017E+02
 MRCHDU: Convergence failed at  52  side 2    Res =  0.2311E+02
 MRCHDU: Convergence failed at  53  side 2    Res =  0.2648E+02
 MRCHDU: Convergence failed at  54  side 2    Res =  0.3021E+02
 MRCHDU: Convergence failed at  55  side 2    Res =  0.3936E+02
 MRCHDU: Convergence failed at  56  side 2    Res =  0.1920E+02
 MRCHDU: Convergence failed at  57  side 2    Res =  0.2095E+02
 MRCHDU: Convergence failed at  58  side 2    Res =  0.2310E+02
 MRCHDU: Convergence failed at  59  side 2    Res =  0.2291E+02
 MRCHDU: Convergence failed at  60  side 2    Res =  0.1926E+02
 MRCHDU: Convergence failed at  61  side 2    Res =  0.3413E+02
 MRCHDU: Convergence failed at  62  side 2    Res =  0.2948E+02
 MRCHDU: Convergence failed at  63  side 2    Res =  0.2596E+02
 MRCHDU: Convergence failed at  64  side 2    Res =  0.2330E+02
 MRCHDU: Convergence failed at  65  side 2    Res =  0.2114E+02
 MRCHDU: Convergence failed at  66  side 2    Res =  0.7545E+02
 MRCHDU: Convergence failed at  67  side 2    Res =  0.1061E+04
 MRCHDU: Convergence failed at  68  side 2    Res =  0.8475E+02
 MRCHDU: Convergence failed at  69  side 2    Res =  0.5216E+02
 MRCHDU: Convergence failed at  70  side 2    Res =  0.4730E+02
 MRCHDU: Convergence failed at  71  side 2    Res =  0.3378E+02
 MRCHDU: Convergence failed at  72  side 2    Res =  0.2734E+02
 MRCHDU: Convergence failed at  73  side 2    Res =  0.4231E+02
 MRCHDU: Convergence failed at  74  side 2    Res =  0.6450E+02
 MRCHDU: Convergence failed at  75  side 2    Res =  0.2608E+03
 MRCHDU: Convergence failed at  76  side 2    Res =  0.1736E+04
 MRCHDU: Convergence failed at  77  side 2    Res =  0.5263E+03
 MRCHDU: Convergence failed at  78  side 2    Res =  0.2120E+04
 MRCHDU: Convergence failed at  79  side 2    Res =  0.1642E+03
 MRCHDU: Convergence failed at  80  side 2    Res =  0.4052E+02
 Side 1  free  transition at x/c =  0.3667   56
 Side 2  free  transition at x/c =  0.1693   40

   3   rms: 0.1209E+01   max: 0.5761E+01   T at   40  2   RLX: 0.183
       a =  2.000      CL =  0.5390
      Cm =  0.0320     CD =  0.01016   =>   CDf =  0.00602    CDp =  0.00414

 MRCHDU: Convergence failed at  66  side 2    Res =  0.3432E+00
 MRCHDU: Convergence failed at  67  side 2    Res =  0.4900E+00
 MRCHDU: Convergence failed at  68  side 2    Res =  0.5875E+00
 MRCHDU: Convergence failed at  69  side 2    Res =  0.6673E+00
 MRCHDU: Convergence failed at  70  side 2    Res =  0.7316E+00
 MRCHDU: Convergence failed at  71  side 2    Res =  0.7870E+00
 MRCHDU: Convergence failed at  72  side 2    Res =  0.8364E+00
 MRCHDU: Convergence failed at  73  side 2    Res =  0.8799E+00
 MRCHDU: Convergence failed at  74  side 2    Res =  0.9214E+00
 MRCHDU: Convergence failed at  75  side 2    Res =  0.9607E+00
 MRCHDU: Convergence failed at  76  side 2    Res =  0.9979E+00
 MRCHDU: Convergence failed at  77  side 2    Res =  0.1032E+01
 MRCHDU: Convergence failed at  78  side 2    Res =  0.1065E+01
 MRCHDU: Convergence failed at  79  side 2    Res =  0.1095E+01
 MRCHDU: Convergence failed at  80  side 2    Res =  0.1130E+01
 Side 1  free  transition at x/c =  0.3690   56
 Side 2  free  transition at x/c =  0.1575   39

   4   rms: 0.6861E+00   max: 0.8175E+01   T at   39  2   RLX: 0.115
       a =  2.000      CL =  0.8401
      Cm = -0.0797     CD =  0.02917   =>   CDf =  0.00614    CDp =  0.02303

 Side 1  free  transition at x/c =  0.3705   56
 Side 2  free  transition at x/c =  0.1505   39

   5   rms: 0.3778E+00   max: 0.1745E+01   T at   39  2   RLX: 0.484
       a =  2.000      CL =  0.7770
      Cm = -0.0976     CD =  0.02970   =>   CDf =  0.00618    CDp =  0.02351

 Side 1  free  transition at x/c =  0.3836   56
 Side 2  free  transition at x/c =  0.1449   39

   6   rms: 0.3073E+00   max: 0.3012E+01   T at   39  2   RLX: 0.371
       a =  2.000      CL =  0.7059
      Cm = -0.0917     CD =  0.03385   =>   CDf =  0.00564    CDp =  0.02821

 Side 1  free  transition at x/c =  0.3883   56
 Side 2  free  transition at x/c =  0.1371   38

   7   rms: 0.6494E+01   max: -.2006E+02   D at   40  2   RLX: 0.025
       a =  2.000      CL =  0.6096
      Cm = -0.0965     CD =  0.03136   =>   CDf =  0.00551    CDp =  0.02585

 Side 1  free  transition at x/c =  0.3926   55
 Side 2  free  transition at x/c =  0.1460   40

   8   rms: 0.3566E+00   max: -.1142E+01   D at   80  2   RLX: 0.438
       a =  2.000      CL =  0.8269
      Cm = -0.1219     CD =  0.01860   =>   CDf =  0.00659    CDp =  0.01201

 Side 1  free  transition at x/c =  0.3877   56
 Side 2  free  transition at x/c =  0.1512   40

   9   rms: 0.2516E+00   max: -.9664E+00   D at   49  2   RLX: 0.517
       a =  2.000      CL =  0.9536
      Cm = -0.1355     CD =  0.01819   =>   CDf =  0.00691    CDp =  0.01128

 Side 1  free  transition at x/c =  0.3841   57
 Side 2  free  transition at x/c =  0.1547   39

  10   rms: 0.1268E+00   max: -.5995E+00   D at   52  2   RLX: 0.834
       a =  2.000      CL =  1.0436
      Cm = -0.1441     CD =  0.01941   =>   CDf =  0.00734    CDp =  0.01207

 Side 1  free  transition at x/c =  0.3814   57
 Side 2  free  transition at x/c =  0.1559   39

  11   rms: 0.4567E-01   max: -.3080E+00   D at   54  2
       a =  2.000      CL =  1.0580
      Cm = -0.1446     CD =  0.02033   =>   CDf =  0.00761    CDp =  0.01272

 Side 1  free  transition at x/c =  0.3808   57
 Side 2  free  transition at x/c =  0.1539   39

  12   rms: 0.5253E-02   max: -.9042E-01   D at   54  2
       a =  2.000      CL =  1.0575
      Cm = -0.1445     CD =  0.02035   =>   CDf =  0.00756    CDp =  0.01279

 Side 1  free  transition at x/c =  0.3808   57
 Side 2  free  transition at x/c =  0.1536   39

  13   rms: 0.3340E-03   max: -.6899E-02   D at   54  2
       a =  2.000      CL =  1.0575
      Cm = -0.1445     CD =  0.02035   =>   CDf =  0.00756    CDp =  0.01279

 Side 1  free  transition at x/c =  0.3808   57
 Side 2  free  transition at x/c =  0.1536   39

  14   rms: 0.1691E-05   max: -.3460E-04   D at   54  2
       a =  2.000      CL =  1.0575
      Cm = -0.1445     CD =  0.02035   =>   CDf =  0.00756    CDp =  0.01279

 Point added to stored polar  1
 Point written to save file  000177M0.1.log                                  
 Dump file unspecified or not available
 Calculating wake trajectory ...
 Calculating source influence matrix ...

 Solving BL system ...

 Side 1  free  transition at x/c =  0.3808   57
 Side 2  free  transition at x/c =  0.1536   39

   1   rms: 0.1472E+00   max: -.8136E+00   T at   39  2   RLX: 0.615
       a =  3.000      CL =  1.1282
      Cm = -0.1442     CD =  0.02015   =>   CDf =  0.00736    CDp =  0.01279

 Side 1  free  transition at x/c =  0.3711   57
 Side 2  free  transition at x/c =  0.1615   39

   2   rms: 0.5446E-01   max: -.2934E+00   T at   39  2
       a =  3.000      CL =  1.1704
      Cm = -0.1436     CD =  0.02029   =>   CDf =  0.00771    CDp =  0.01258

 Side 1  free  transition at x/c =  0.3635   58
 Side 2  free  transition at x/c =  0.1648   38

   3   rms: 0.4089E-01   max: -.1694E+00   D at   44  2
       a =  3.000      CL =  1.1716
      Cm = -0.1439     CD =  0.02023   =>   CDf =  0.00770    CDp =  0.01254

 Side 1  free  transition at x/c =  0.3636   58
 Side 2  free  transition at x/c =  0.1659   38

   4   rms: 0.1646E-02   max: 0.1438E-01   D at   40  2
       a =  3.000      CL =  1.1714
      Cm = -0.1438     CD =  0.02029   =>   CDf =  0.00783    CDp =  0.01247

 Side 1  free  transition at x/c =  0.3636   58
 Side 2  free  transition at x/c =  0.1657   38

   5   rms: 0.9538E-05   max: -.5462E-04   D at   41  2
       a =  3.000      CL =  1.1714
      Cm = -0.1438     CD =  0.02029   =>   CDf =  0.00782    CDp =  0.01247

 Point added to stored polar  1
 Point written to save file  000177M0.1.log                                  
 Dump file unspecified or not available
 Calculating wake trajectory ...
 Calculating source influence matrix ...

 Solving BL system ...

 Side 1  free  transition at x/c =  0.3636   58
 Side 2  free  transition at x/c =  0.1657   38

   1   rms: 0.1410E+00   max: -.8135E+00   T at   38  2   RLX: 0.615
       a =  4.000      CL =  1.2402
      Cm = -0.1431     CD =  0.02039   =>   CDf =  0.00783    CDp =  0.01256

 Side 1  free  transition at x/c =  0.3536   57
 Side 2  free  transition at x/c =  0.1743   39

   2   rms: 0.5376E-01   max: -.2820E+00   T at   39  2
       a =  4.000      CL =  1.2811
      Cm = -0.1424     CD =  0.02066   =>   CDf =  0.00792    CDp =  0.01274

 Side 1  free  transition at x/c =  0.3475   58
 Side 2  free  transition at x/c =  0.1784   38

   3   rms: 0.2337E-01   max: -.1112E+00   D at   38  2
       a =  4.000      CL =  1.2818
      Cm = -0.1425     CD =  0.02071   =>   CDf =  0.00793    CDp =  0.01277

 Side 1  free  transition at x/c =  0.3474   58
 Side 2  free  transition at x/c =  0.1791   38

   4   rms: 0.5038E-03   max: 0.5540E-02   D at   40  2
       a =  4.000      CL =  1.2817
      Cm = -0.1425     CD =  0.02073   =>   CDf =  0.00800    CDp =  0.01273

 Side 1  free  transition at x/c =  0.3474   58
 Side 2  free  transition at x/c =  0.1790   38

   5   rms: 0.1861E-05   max: 0.1203E-04   D at   53  2
       a =  4.000      CL =  1.2817
      Cm = -0.1425     CD =  0.02072   =>   CDf =  0.00800    CDp =  0.01273

 Point added to stored polar  1
 Point written to save file  000177M0.1.log                                  
 Dump file unspecified or not available
 Calculating wake trajectory ...
 Calculating source influence matrix ...

 Solving BL system ...

 Side 1  free  transition at x/c =  0.3474   58
 Side 2  free  transition at x/c =  0.1790   38

   1   rms: 0.1361E+00   max: -.8231E+00   T at   38  2   RLX: 0.607
       a =  5.000      CL =  1.3474
      Cm = -0.1415     CD =  0.02107   =>   CDf =  0.00776    CDp =  0.01332

 Side 1  free  transition at x/c =  0.3374   59
 Side 2  free  transition at x/c =  0.1874   38

   2   rms: 0.5597E-01   max: -.4057E+00   T at   38  2
       a =  5.000      CL =  1.3900
      Cm = -0.1411     CD =  0.02177   =>   CDf =  0.00825    CDp =  0.01352

 Side 1  free  transition at x/c =  0.3327   58
 Side 2  free  transition at x/c =  0.1934   38

   3   rms: 0.3946E-01   max: -.1939E+00   D at   38  2
       a =  5.000      CL =  1.3882
      Cm = -0.1408     CD =  0.02147   =>   CDf =  0.00809    CDp =  0.01338

 Side 1  free  transition at x/c =  0.3323   58
 Side 2  free  transition at x/c =  0.1939   38

   4   rms: 0.1317E-02   max: 0.1366E-01   D at   40  2
       a =  5.000      CL =  1.3886
      Cm = -0.1409     CD =  0.02151   =>   CDf =  0.00813    CDp =  0.01338

 Side 1  free  transition at x/c =  0.3322   58
 Side 2  free  transition at x/c =  0.1938   38

   5   rms: 0.6742E-05   max: -.4874E-04   D at   40  2
       a =  5.000      CL =  1.3885
      Cm = -0.1409     CD =  0.02151   =>   CDf =  0.00813    CDp =  0.01338

 Point added to stored polar  1
 Point written to save file  000177M0.1.log                                  
 Dump file unspecified or not available
 Calculating wake trajectory ...
 Calculating source influence matrix ...

 Solving BL system ...

 Side 1  free  transition at x/c =  0.3322   58
 Side 2  free  transition at x/c =  0.1938   38

   1   rms: 0.1338E+00   max: -.8069E+00   T at   38  2   RLX: 0.620
       a =  6.000      CL =  1.4524
      Cm = -0.1396     CD =  0.02206   =>   CDf =  0.00787    CDp =  0.01419

 Side 1  free  transition at x/c =  0.3224   59
 Side 2  free  transition at x/c =  0.2032   38

   2   rms: 0.5405E-01   max: -.4188E+00   T at   38  2
       a =  6.000      CL =  1.4912
      Cm = -0.1389     CD =  0.02244   =>   CDf =  0.00795    CDp =  0.01449

 Side 1  free  transition at x/c =  0.3184   59
 Side 2  free  transition at x/c =  0.2096   37

   3   rms: 0.3899E-01   max: -.2319E+00   D at   37  2
       a =  6.000      CL =  1.4914
      Cm = -0.1389     CD =  0.02261   =>   CDf =  0.00820    CDp =  0.01441

 Side 1  free  transition at x/c =  0.3177   59
 Side 2  free  transition at x/c =  0.2105   37

   4   rms: 0.1753E-02   max: 0.1510E-01   D at   38  2
       a =  6.000      CL =  1.4913
      Cm = -0.1389     CD =  0.02262   =>   CDf =  0.00825    CDp =  0.01436

 Side 1  free  transition at x/c =  0.3177   59
 Side 2  free  transition at x/c =  0.2104   37

   5   rms: 0.1398E-04   max: 0.1519E-03   D at   38  2
       a =  6.000      CL =  1.4913
      Cm = -0.1389     CD =  0.02262   =>   CDf =  0.00825    CDp =  0.01436

 Point added to stored polar  1
 Point written to save file  000177M0.1.log                                  
 Dump file unspecified or not available
 Calculating wake trajectory ...
 Calculating source influence matrix ...

 Solving BL system ...

 Side 1  free  transition at x/c =  0.3177   59
 Side 2  free  transition at x/c =  0.2104   37

   1   rms: 0.1324E+00   max: -.7768E+00   T at   37  2   RLX: 0.644
       a =  7.000      CL =  1.5519
      Cm = -0.1371     CD =  0.02331   =>   CDf =  0.00827    CDp =  0.01504

 Side 1  free  transition at x/c =  0.3085   59
 Side 2  free  transition at x/c =  0.2223   38

   2   rms: 0.4691E-01   max: -.2814E+00   T at   38  2
       a =  7.000      CL =  1.5855
      Cm = -0.1361     CD =  0.02385   =>   CDf =  0.00792    CDp =  0.01593

 Side 1  free  transition at x/c =  0.3041   60
 Side 2  free  transition at x/c =  0.2280   37

   3   rms: 0.1826E-01   max: -.1268E+00   D at   37  2
       a =  7.000      CL =  1.5858
      Cm = -0.1361     CD =  0.02390   =>   CDf =  0.00821    CDp =  0.01570

 Side 1  free  transition at x/c =  0.3043   60
 Side 2  free  transition at x/c =  0.2286   37

   4   rms: 0.3813E-03   max: 0.3611E-02   D at   38  2
       a =  7.000      CL =  1.5858
      Cm = -0.1361     CD =  0.02391   =>   CDf =  0.00822    CDp =  0.01568

 Side 1  free  transition at x/c =  0.3043   60
 Side 2  free  transition at x/c =  0.2286   37

   5   rms: 0.1946E-05   max: 0.1042E-04   D at   50  2
       a =  7.000      CL =  1.5858
      Cm = -0.1361     CD =  0.02391   =>   CDf =  0.00822    CDp =  0.01568

 Point added to stored polar  1
 Point written to save file  000177M0.1.log                                  
 Dump file unspecified or not available
 Calculating wake trajectory ...
 Calculating source influence matrix ...

 Solving BL system ...

 Side 1  free  transition at x/c =  0.3043   60
 Side 2  free  transition at x/c =  0.2286   37

   1   rms: 0.1342E+00   max: -.7844E+00   T at   37  2   RLX: 0.637
       a =  8.000      CL =  1.6470
      Cm = -0.1346     CD =  0.02516   =>   CDf =  0.00793    CDp =  0.01723

 Side 1  free  transition at x/c =  0.2972   60
 Side 2  free  transition at x/c =  0.2425   37

   2   rms: 0.4545E-01   max: -.2155E+00   T at   37  2
       a =  8.000      CL =  1.6672
      Cm = -0.1323     CD =  0.02572   =>   CDf =  0.00823    CDp =  0.01749

 Side 1  free  transition at x/c =  0.2913   60
 Side 2  free  transition at x/c =  0.2481   37

   3   rms: 0.9008E-02   max: -.6307E-01   D at   37  2
       a =  8.000      CL =  1.6657
      Cm = -0.1320     CD =  0.02577   =>   CDf =  0.00811    CDp =  0.01766

 Side 1  free  transition at x/c =  0.2917   60
 Side 2  free  transition at x/c =  0.2484   37

   4   rms: 0.4898E-03   max: -.2527E-02   D at   88  1
       a =  8.000      CL =  1.6662
      Cm = -0.1320     CD =  0.02577   =>   CDf =  0.00810    CDp =  0.01767

 Side 1  free  transition at x/c =  0.2917   60
 Side 2  free  transition at x/c =  0.2484   37

   5   rms: 0.7167E-05   max: 0.6307E-04   D at   38  2
       a =  8.000      CL =  1.6662
      Cm = -0.1321     CD =  0.02577   =>   CDf =  0.00810    CDp =  0.01767

 Point added to stored polar  1
 Point written to save file  000177M0.1.log                                  
 Dump file unspecified or not available
 Calculating wake trajectory ...
 Calculating source influence matrix ...

 Solving BL system ...

 Side 1  free  transition at x/c =  0.2917   60
 Side 2  free  transition at x/c =  0.2484   37

   1   rms: 0.1218E+00   max: -.7400E+00   T at   37  2   RLX: 0.676
       a =  9.000      CL =  1.7119
      Cm = -0.1283     CD =  0.02722   =>   CDf =  0.00780    CDp =  0.01942

 Side 1  free  transition at x/c =  0.2844   60
 Side 2  free  transition at x/c =  0.2626   37

   2   rms: 0.4009E-01   max: -.2428E+00   T at   37  2
       a =  9.000      CL =  1.7290
      Cm = -0.1271     CD =  0.02863   =>   CDf =  0.00820    CDp =  0.02044

 Side 1  free  transition at x/c =  0.2801   60
 Side 2  free  transition at x/c =  0.2689   37

   3   rms: 0.1276E-01   max: -.8755E-01   D at   37  2
       a =  9.000      CL =  1.7338
      Cm = -0.1276     CD =  0.02855   =>   CDf =  0.00801    CDp =  0.02054

 Side 1  free  transition at x/c =  0.2800   60
 Side 2  free  transition at x/c =  0.2700   37

   4   rms: 0.1967E-03   max: 0.2050E-02   D at   38  2
       a =  9.000      CL =  1.7339
      Cm = -0.1276     CD =  0.02856   =>   CDf =  0.00802    CDp =  0.02054

 Side 1  free  transition at x/c =  0.2800   60
 Side 2  free  transition at x/c =  0.2700   37

   5   rms: 0.2160E-05   max: 0.1950E-04   D at   38  2
       a =  9.000      CL =  1.7339
      Cm = -0.1276     CD =  0.02856   =>   CDf =  0.00802    CDp =  0.02054

 Point added to stored polar  1
 Point written to save file  000177M0.1.log                                  
 Dump file unspecified or not available
 Calculating wake trajectory ...
 Calculating source influence matrix ...

 Solving BL system ...

 Side 1  free  transition at x/c =  0.2800   60
 Side 2  free  transition at x/c =  0.2700   37

   1   rms: 0.1222E+00   max: -.7410E+00   T at   37  2   RLX: 0.675
       a = 10.000      CL =  1.7725
      Cm = -0.1247     CD =  0.03095   =>   CDf =  0.00770    CDp =  0.02324

 Side 1  free  transition at x/c =  0.2721   61
 Side 2  free  transition at x/c =  0.2866   37

   2   rms: 0.4408E-01   max: 0.3572E+00   D at   37  2
       a = 10.000      CL =  1.7994
      Cm = -0.1240     CD =  0.03194   =>   CDf =  0.00802    CDp =  0.02392

 Side 1  free  transition at x/c =  0.2695   60
 Side 2  free  transition at x/c =  0.2938   37

   3   rms: 0.1266E-01   max: -.9958E-01   D at   37  2
       a = 10.000      CL =  1.7969
      Cm = -0.1239     CD =  0.03213   =>   CDf =  0.00804    CDp =  0.02409

 Side 1  free  transition at x/c =  0.2690   60
 Side 2  free  transition at x/c =  0.2947   37

   4   rms: 0.4863E-03   max: 0.4051E-02   D at   38  2
       a = 10.000      CL =  1.7971
      Cm = -0.1240     CD =  0.03211   =>   CDf =  0.00801    CDp =  0.02410

 Side 1  free  transition at x/c =  0.2690   60
 Side 2  free  transition at x/c =  0.2947   37

   5   rms: 0.6087E-05   max: 0.7457E-04   D at   38  2
       a = 10.000      CL =  1.7971
      Cm = -0.1240     CD =  0.03211   =>   CDf =  0.00801    CDp =  0.02410

 Point added to stored polar  1
 Point written to save file  000177M0.1.log                                  
 Dump file unspecified or not available
 Calculating wake trajectory ...
 Calculating source influence matrix ...

 Solving BL system ...

 Side 1  free  transition at x/c =  0.2690   60
 Side 2  free  transition at x/c =  0.2947   37

   1   rms: 0.1276E+00   max: -.7169E+00   T at   37  2   RLX: 0.697
       a = 11.000      CL =  1.8180
      Cm = -0.1210     CD =  0.03618   =>   CDf =  0.00769    CDp =  0.02850

 MRCHDU: Convergence failed at  38  side 2    Res =  0.1833E+01
 MRCHDU: Convergence failed at  39  side 2    Res =  0.1864E+01
 MRCHDU: Convergence failed at  40  side 2    Res =  0.2164E+01
 MRCHDU: Convergence failed at  41  side 2    Res =  0.3483E+01
 MRCHDU: Convergence failed at  42  side 2    Res =  0.5658E+01
 MRCHDU: Convergence failed at  43  side 2    Res =  0.8594E+01
 MRCHDU: Convergence failed at  44  side 2    Res =  0.1249E+02
 MRCHDU: Convergence failed at  45  side 2    Res =  0.1615E+02
 MRCHDU: Convergence failed at  46  side 2    Res =  0.1748E+02
 MRCHDU: Convergence failed at  47  side 2    Res =  0.1604E+02
 MRCHDU: Convergence failed at  48  side 2    Res =  0.1284E+02
 MRCHDU: Convergence failed at  49  side 2    Res =  0.9449E+01
 MRCHDU: Convergence failed at  50  side 2    Res =  0.6676E+01
 MRCHDU: Convergence failed at  51  side 2    Res =  0.4668E+01
 MRCHDU: Convergence failed at  52  side 2    Res =  0.3292E+01
 MRCHDU: Convergence failed at  53  side 2    Res =  0.2197E+01
 MRCHDU: Convergence failed at  54  side 2    Res =  0.1595E+01
 Side 1  free  transition at x/c =  0.2613   61
 Side 2  free  transition at x/c =  0.3161   37

   2   rms: 0.1355E+00   max: -.8064E+00   D at   54  2   RLX: 0.620
       a = 11.000      CL =  1.8196
      Cm = -0.1178     CD =  0.03666   =>   CDf =  0.00702    CDp =  0.02964

 Side 1  free  transition at x/c =  0.2594   61
 Side 2  free  transition at x/c =  0.3201   38

   3   rms: 0.4327E-01   max: 0.3071E+00   D at   41  2
       a = 11.000      CL =  1.8396
      Cm = -0.1207     CD =  0.03742   =>   CDf =  0.00785    CDp =  0.02958

 Side 1  free  transition at x/c =  0.2585   61
 Side 2  free  transition at x/c =  0.3214   38

   4   rms: 0.3551E-02   max: -.3977E-01   D at   40  2
       a = 11.000      CL =  1.8399
      Cm = -0.1207     CD =  0.03739   =>   CDf =  0.00773    CDp =  0.02965

 Side 1  free  transition at x/c =  0.2585   61
 Side 2  free  transition at x/c =  0.3205   38

   5   rms: 0.1688E-03   max: -.2399E-02   D at   40  2
       a = 11.000      CL =  1.8398
      Cm = -0.1207     CD =  0.03739   =>   CDf =  0.00774    CDp =  0.02965

 Side 1  free  transition at x/c =  0.2585   61
 Side 2  free  transition at x/c =  0.3204   38

   6   rms: 0.1102E-05   max: -.1150E-04   D at   40  2
       a = 11.000      CL =  1.8398
      Cm = -0.1207     CD =  0.03739   =>   CDf =  0.00774    CDp =  0.02965

 Point added to stored polar  1
 Point written to save file  000177M0.1.log                                  
 Dump file unspecified or not available
 Calculating wake trajectory ...
 Calculating source influence matrix ...

 Solving BL system ...

 Side 1  free  transition at x/c =  0.2585   61
 Side 2  free  transition at x/c =  0.3204   38

   1   rms: 0.1421E+00   max: -.1115E+01   T at   38  2   RLX: 0.449
       a = 12.000      CL =  1.8673
      Cm = -0.1197     CD =  0.03934   =>   CDf =  0.00742    CDp =  0.03191

 Side 1  free  transition at x/c =  0.2545   61
 Side 2  free  transition at x/c =  0.3348   37

   2   rms: 0.8257E-01   max: -.4325E+00   T at   37  2
       a = 12.000      CL =  1.8641
      Cm = -0.1181     CD =  0.04514   =>   CDf =  0.00779    CDp =  0.03734

 Side 1  free  transition at x/c =  0.2482   61
 Side 2  free  transition at x/c =  0.3532   38

   3   rms: 0.3531E-01   max: 0.4871E+00   D at   38  2
       a = 12.000      CL =  1.8747
      Cm = -0.1183     CD =  0.04409   =>   CDf =  0.00741    CDp =  0.03668

 Side 1  free  transition at x/c =  0.2482   61
 Side 2  free  transition at x/c =  0.3527   38

   4   rms: 0.6361E-02   max: 0.6843E-01   D at   38  2
       a = 12.000      CL =  1.8751
      Cm = -0.1183     CD =  0.04413   =>   CDf =  0.00745    CDp =  0.03668

 Side 1  free  transition at x/c =  0.2482   61
 Side 2  free  transition at x/c =  0.3510   38

   5   rms: 0.1630E-03   max: -.2831E-02   D at   40  2
       a = 12.000      CL =  1.8751
      Cm = -0.1183     CD =  0.04414   =>   CDf =  0.00746    CDp =  0.03668

 Side 1  free  transition at x/c =  0.2482   61
 Side 2  free  transition at x/c =  0.3509   38

   6   rms: 0.2442E-05   max: 0.1834E-04   D at   80  2
       a = 12.000      CL =  1.8751
      Cm = -0.1183     CD =  0.04414   =>   CDf =  0.00746    CDp =  0.03668

 Point added to stored polar  1
 Point written to save file  000177M0.1.log                                  
 Dump file unspecified or not available
 Calculating wake trajectory ...
 Calculating source influence matrix ...

 Solving BL system ...

 Side 1  free  transition at x/c =  0.2482   61
 Side 2  free  transition at x/c =  0.3509   38

   1   rms: 0.1196E+00   max: -.7606E+00   T at   38  2   RLX: 0.657
       a = 13.000      CL =  1.8950
      Cm = -0.1172     CD =  0.04936   =>   CDf =  0.00714    CDp =  0.04222

 Side 1  free  transition at x/c =  0.2418   62
 Side 2  free  transition at x/c =  0.3757   38

   2   rms: 0.5987E-01   max: -.5175E+00   T at   38  2   RLX: 0.966
       a = 13.000      CL =  1.9334
      Cm = -0.1158     CD =  0.04880   =>   CDf =  0.00746    CDp =  0.04134

 MRCHDU: Convergence failed at  40  side 2    Res =  0.4681E+01
 MRCHDU: Convergence failed at  41  side 2    Res =  0.4210E+01
 MRCHDU: Convergence failed at  42  side 2    Res =  0.1991E+02
 MRCHDU: Convergence failed at  43  side 2    Res =  0.6106E+02
 MRCHDU: Convergence failed at  44  side 2    Res =  0.3738E+02
 MRCHDU: Convergence failed at  45  side 2    Res =  0.1922E+03
 MRCHDU: Convergence failed at  46  side 2    Res =  0.1895E+02
 Side 1  free  transition at x/c =  0.2394   61
 Side 2  free  transition at x/c =  0.4016   40

   3   rms: 0.1103E+00   max: -.8347E+00   D at   46  2   RLX: 0.599
       a = 13.000      CL =  1.9199
      Cm = -0.1164     CD =  0.05014   =>   CDf =  0.00714    CDp =  0.04300

 Side 1  free  transition at x/c =  0.2391   61
 Side 2  free  transition at x/c =  0.3975   40

   4   rms: 0.2401E-01   max: -.3936E+00   D at   40  2
       a = 13.000      CL =  1.9111
      Cm = -0.1164     CD =  0.05132   =>   CDf =  0.00738    CDp =  0.04395

 Side 1  free  transition at x/c =  0.2388   61
 Side 2  free  transition at x/c =  0.3935   39

   5   rms: 0.3474E-02   max: -.5008E-01   D at   39  2
       a = 13.000      CL =  1.9111
      Cm = -0.1164     CD =  0.05120   =>   CDf =  0.00731    CDp =  0.04389

 Side 1  free  transition at x/c =  0.2388   61
 Side 2  free  transition at x/c =  0.3926   39

   6   rms: 0.3565E-04   max: -.6006E-03   D at   41  2
       a = 13.000      CL =  1.9111
      Cm = -0.1164     CD =  0.05120   =>   CDf =  0.00730    CDp =  0.04390

 Point added to stored polar  1
 Point written to save file  000177M0.1.log                                  
 Dump file unspecified or not available
 Calculating wake trajectory ...
 Calculating source influence matrix ...

 Solving BL system ...

 Side 1  free  transition at x/c =  0.2388   61
 Side 2  free  transition at x/c =  0.3925   39

   1   rms: 0.1308E+00   max: -.6011E+00   T at   39  2   RLX: 0.666
       a = 14.000      CL =  1.9005
      Cm = -0.1163     CD =  0.06028   =>   CDf =  0.00733    CDp =  0.05295

 Side 1  free  transition at x/c =  0.2318   61
 Side 2  free  transition at x/c =  0.4213   41

   2   rms: 0.6268E-01   max: -.5593E+00   C at   41  2   RLX: 0.894
       a = 14.000      CL =  1.9225
      Cm = -0.1156     CD =  0.06086   =>   CDf =  0.00668    CDp =  0.05418

 Side 1  free  transition at x/c =  0.2296   62
 Side 2  free  transition at x/c =  0.4430   41

   3   rms: 0.2815E-01   max: -.3204E+00   C at   41  2
       a = 14.000      CL =  1.9264
      Cm = -0.1157     CD =  0.06079   =>   CDf =  0.00699    CDp =  0.05379

 Side 1  free  transition at x/c =  0.2294   62
 Side 2  free  transition at x/c =  0.4592   42

   4   rms: 0.1003E-01   max: -.1603E+00   C at   42  2
       a = 14.000      CL =  1.9273
      Cm = -0.1157     CD =  0.06071   =>   CDf =  0.00697    CDp =  0.05374

 Side 1  free  transition at x/c =  0.2294   62
 Side 2  free  transition at x/c =  0.4616   42

   5   rms: 0.4455E-03   max: 0.6731E-02   C at   42  2
       a = 14.000      CL =  1.9273
      Cm = -0.1157     CD =  0.06072   =>   CDf =  0.00696    CDp =  0.05377

 Side 1  free  transition at x/c =  0.2294   62
 Side 2  free  transition at x/c =  0.4614   42

   6   rms: 0.3702E-05   max: 0.2658E-04   D at   81  2
       a = 14.000      CL =  1.9273
      Cm = -0.1157     CD =  0.06072   =>   CDf =  0.00696    CDp =  0.05377

 Point added to stored polar  1
 Point written to save file  000177M0.1.log                                  
 Dump file unspecified or not available
 Calculating wake trajectory ...
 Calculating source influence matrix ...

 Solving BL system ...

 Side 1  free  transition at x/c =  0.2294   62
 Side 2  free  transition at x/c =  0.4614   42

   1   rms: 0.2433E+00   max: -.3915E+01   C at   42  2   RLX: 0.128
       a = 15.000      CL =  1.9353
      Cm = -0.1155     CD =  0.06126   =>   CDf =  0.00699    CDp =  0.05427

 Side 1  free  transition at x/c =  0.2283   62
 Side 2  free  transition at x/c =  0.4812   43

   2   rms: 0.3555E+00   max: -.6419E+01   C at   43  2   RLX: 0.078
       a = 15.000      CL =  1.9423
      Cm = -0.1153     CD =  0.06127   =>   CDf =  0.00700    CDp =  0.05427

 Side 1  free  transition at x/c =  0.2277   62
 Side 2  free  transition at x/c =  0.4944   44

   3   rms: 0.4441E+00   max: -.7758E+01   C at   44  2   RLX: 0.064
       a = 15.000      CL =  1.9493
      Cm = -0.1152     CD =  0.06115   =>   CDf =  0.00703    CDp =  0.05411

 Side 1  free  transition at x/c =  0.2272   62
 Side 2  free  transition at x/c =  0.5095   44

   4   rms: 0.1947E+0Got result {'DD': 0.02013, 'Dmin': 0.02029, 'LL': -1.0525}
Completed successfully in 2.86 seconds. [{'DD': 0.02013, 'Dmin': 0.02029, 'LL': -1.0525}]
0   max: -.1748E+01   T at   44  2   RLX: 0.286
       a = 15.000      CL =  1.9810
      Cm = -0.1141     CD =  0.06002   =>   CDf =  0.00705    CDp =  0.05296

 Side 1  free  transition at x/c =  0.2253   61
 Side 2 forced transition at x/c =  1.0001   66

   5   rms: 0.1216E+00   max: 0.6266E+00   D at   80  1
       a = 15.000      CL =  1.9054
      Cm = -0.1165     CD =  0.07600   =>   CDf =  0.00667    CDp =  0.06933

 Side 1  free  transition at x/c =  0.2200   61
 Side 2 forced transition at x/c =  1.0001   66

   6   rms: 0.1861E-01   max: -.1440E+00   D at   81  1
       a = 15.000      CL =  1.9196
      Cm = -0.1158     CD =  0.07288   =>   CDf =  0.00619    CDp =  0.06668

 Side 1  free  transition at x/c =  0.2199   61
 Side 2 forced transition at x/c =  1.0001   66

   7   rms: 0.1200E-02   max: 0.2189E-01   D at   78  1
       a = 15.000      CL =  1.9203
      Cm = -0.1159     CD =  0.07309   =>   CDf =  0.00620    CDp =  0.06688

 Side 1  free  transition at x/c =  0.2199   61
 Side 2 forced transition at x/c =  1.0001   66

   8   rms: 0.3553E-04   max: -.3262E-03   D at   78  1
       a = 15.000      CL =  1.9204
      Cm = -0.1159     CD =  0.07308   =>   CDf =  0.00620    CDp =  0.06688

 Point added to stored polar  1
 Point written to save file  000177M0.1.log                                  
 Dump file unspecified or not available

.OPERva   c>  
 XFOIL   c>  
