Job launching after 0.30 seconds in submission.
Running python job.
Changed into dir /home/simonx/Documents/Udacity/Projects/capstone/PESM_NSGA2_CST_XFoil
Importing evaluationFunctionXFoil.py
Running evaluationFunctionXFoil.main()
0
1
2
0.04
resp: 
 ===================================================
  XFOIL Version 6.97
  Copyright (C) 2000   Mark Drela, Harold Youngren

  This software comes with ABSOLUTELY NO WARRANTY,
    subject to the GNU General Public License.

  Caveat computor
 ===================================================

 File  xfoil.def  not found

   QUIT    Exit program

  .OPER    Direct operating point(s)
  .MDES    Complex mapping design routine
  .QDES    Surface speed design routine
  .GDES    Geometry design routine

   SAVE f  Write airfoil to labeled coordinate file
   PSAV f  Write airfoil to plain coordinate file
   ISAV f  Write airfoil to ISES coordinate file
   MSAV f  Write airfoil to MSES coordinate file
   REVE    Reverse written-airfoil node ordering
   DELI i  Change written-airfoil file delimiters

   LOAD f  Read buffer airfoil from coordinate file
   NACA i  Set NACA 4,5-digit airfoil and buffer airfoil
   INTE    Set buffer airfoil by interpolating two airfoils
   NORM    Buffer airfoil normalization toggle
   HALF    Halve the number of points in buffer airfoil
   XYCM rr Change CM reference location, currently  0.25000 0.00000

   BEND    Display structural properties of current airfoil

   PCOP    Set current-airfoil panel nodes directly from buffer airfoil points
   PANE    Set current-airfoil panel nodes ( 160 ) based on curvature
  .PPAR    Show/change paneling

  .PLOP    Plotting options

   WDEF f  Write  current-settings file
   RDEF f  Reread current-settings file
   NAME s  Specify new airfoil name
   NINC    Increment name version number

   Z       Zoom    | (available in all menus)
   U       Unzoom  | 

 XFOIL   c>   ...............................................

  G raphics-enable flag:        T
  S ize of plot object          10.00"
  A spect ratio of plot object   0.5500
  P age dimensions              11.00 x  8.50"
  M argins from page edges       0.00",  0.00"
  F ont size (relative)          0.0150
  W indow/screen size fraction   0.8000
  B lowup input method:        Cursor    
  O rientation of plot:        Landscape 
  C olor PostScript output?     F

      Option, Value   (or <Return>)    c>   ...............................................

  G raphics-enable flag:        F
  S ize of plot object          10.00"
  A spect ratio of plot object   0.5500
  P age dimensions              11.00 x  8.50"
  M argins from page edges       0.00",  0.00"
  F ont size (relative)          0.0150
  W indow/screen size fraction   0.8000
  B lowup input method:        Cursor    
  O rientation of plot:        Landscape 
  C olor PostScript output?     F

      Option, Value   (or <Return>)    c>  
 XFOIL   c>  
 Labeled airfoil file.  Name:  000114                                          

 Number of input coordinate points: 200
 Clockwise ordering
 Max thickness =     0.140963  at x =   0.169
 Max camber    =     0.111152  at x =   0.437

  LE  x,y  =  -0.00001   0.00068  |   Chord =   0.99988
  TE  x,y  =   0.99988   0.00005  |

 Current airfoil nodes set from buffer airfoil nodes ( 200 )

 XFOIL   c>  
 You are working with the buffer airfoil

.GDES   c>  
  i       x        y      angle
   2   0.9990   0.0004   -0.009
   3   0.9978   0.0010    0.051
   4   0.9961   0.0017    0.066
   5   0.9938   0.0027    0.062
   6   0.9911   0.0038    0.097
   7   0.9880   0.0052    0.091
   8   0.9843   0.0068    0.111
   9   0.9801   0.0086    0.129
  10   0.9755   0.0105    0.133
  11   0.9704   0.0127    0.136
  12   0.9649   0.0150    0.155
  13   0.9589   0.0175    0.165
  14   0.9524   0.0202    0.181
  15   0.9455   0.0230    0.176
  16   0.9382   0.0259    0.189
  17   0.9304   0.0291    0.201
  18   0.9222   0.0323    0.198
  19   0.9135   0.0357    0.216
  20   0.9045   0.0392    0.209
  21   0.8951   0.0428    0.230
  22   0.8853   0.0466    0.228
  23   0.8751   0.0504    0.234
  24   0.8645   0.0543    0.240
  25   0.8536   0.0583    0.248
  26   0.8423   0.0624    0.259
  27   0.8307   0.0665    0.256
  28   0.8187   0.0707    0.272
  29   0.8065   0.0749    0.284
  30   0.7939   0.0792    0.282
  31   0.7810   0.0835    0.307
  32   0.7679   0.0878    0.307
  33   0.7545   0.0921    0.325
  34   0.7409   0.0965    0.343
  35   0.7270   0.1008    0.357
  36   0.7129   0.1050    0.374
  37   0.6986   0.1093    0.393
  38   0.6841   0.1134    0.416
  39   0.6694   0.1176    0.441
  40   0.6545   0.1216    0.460
  41   0.6395   0.1256    0.495
  42   0.6243   0.1294    0.516
  43   0.6091   0.1332    0.548
  44   0.5937   0.1368    0.583
  45   0.5782   0.1402    0.612
  46   0.5627   0.1435    0.645
  47   0.5471   0.1467    0.685
  48   0.5314   0.1496    0.720
  49   0.5157   0.1524    0.761
  50   0.5000   0.1549    0.794
  51   0.4843   0.1573    0.837
  52   0.4686   0.1593    0.875
  53   0.4529   0.1612    0.916
  54   0.4373   0.1628    0.952
  55   0.4218   0.1641    0.996
  56   0.4063   0.1651    1.031
  57   0.3909   0.1659    1.066
  58   0.3757   0.1663    1.105
  59   0.3605   0.1665    1.131
  60   0.3455   0.1664    1.173
  61   0.3306   0.1659    1.195
  62   0.3159   0.1652    1.224
  63   0.3014   0.1641    1.248
  64   0.2871   0.1628    1.277
  65   0.2730   0.1612    1.287
  66   0.2591   0.1592    1.310
  67   0.2455   0.1570    1.324
  68   0.2321   0.1545    1.335
  69   0.2190   0.1518    1.348
  70   0.2061   0.1488    1.363
  71   0.1935   0.1455    1.370
  72   0.1813   0.1420    1.373
  73   0.1693   0.1383    1.390
  74   0.1577   0.1343    1.400
  75   0.1464   0.1302    1.412
  76   0.1355   0.1259    1.428
  77   0.1249   0.1214    1.451
  78   0.1147   0.1168    1.474
  79   0.1049   0.1120    1.508
  80   0.0955   0.1071    1.544
  81   0.0865   0.1021    1.601
  82   0.0778   0.0970    1.659
  83   0.0696   0.0919    1.735
  84   0.0618   0.0866    1.820
  85   0.0545   0.0813    1.928
  86   0.0476   0.0760    2.056
  87   0.0411   0.0706    2.202
  88   0.0351   0.0652    2.376
  89   0.0296   0.0598    2.567
  90   0.0245   0.0544    2.793
  91   0.0199   0.0489    3.043
  92   0.0157   0.0435    3.334
  93   0.0120   0.0380    3.614
  94   0.0089   0.0326    3.937
  95   0.0062   0.0271    4.249
  96   0.0039   0.0217    4.542
  97   0.0022   0.0163    4.820
  98   0.0010   0.0109    5.019
  99   0.0002   0.0054    5.159
 100   0.0000   0.0000    6.974
 101   0.0002  -0.0032    8.673
 102   0.0010  -0.0064    8.513
 103   0.0022  -0.0095    8.306
 104   0.0039  -0.0126    7.950
 105   0.0062  -0.0154    7.532
 106   0.0089  -0.0181    7.110
 107   0.0120  -0.0205    6.557
 108   0.0157  -0.0227    6.058
 109   0.0199  -0.0246    5.496
 110   0.0245  -0.0263    4.999
 111   0.0296  -0.0276    4.488
 112   0.0351  -0.0286    4.024
 113   0.0411  -0.0292    3.570
 114   0.0476  -0.0295    3.169
 115   0.0545  -0.0294    2.808
 116   0.0618  -0.0289    2.461
 117   0.0696  -0.0281    2.149
 118   0.0778  -0.0269    1.863
 119   0.0865  -0.0253    1.611
 120   0.0955  -0.0235    1.377
 121   0.1049  -0.0213    1.147
 122   0.1147  -0.0188    0.960
 123   0.1249  -0.0160    0.771
 124   0.1355  -0.0130    0.601
 125   0.1464  -0.0097    0.445
 126   0.1577  -0.0063    0.299
 127   0.1693  -0.0027    0.159
 128   0.1813   0.0011    0.044
 129   0.1935   0.0049   -0.077
 130   0.2061   0.0089   -0.191
 131   0.2190   0.0129   -0.288
 132   0.2321   0.0169   -0.373
 133   0.2455   0.0209   -0.468
 134   0.2591   0.0248   -0.538
 135   0.2730   0.0287   -0.613
 136   0.2871   0.0324   -0.672
 137   0.3014   0.0361   -0.732
 138   0.3159   0.0396   -0.775
 139   0.3306   0.0429   -0.817
 140   0.3455   0.0461   -0.854
 141   0.3605   0.0490   -0.878
 142   0.3757   0.0517   -0.904
 143   0.3909   0.0543   -0.908
 144   0.4063   0.0565   -0.922
 145   0.4218   0.0586   -0.922
 146   0.4373   0.0604   -0.919
 147   0.4529   0.0619   -0.909
 148   0.4686   0.0632   -0.892
 149   0.4843   0.0643   -0.876
 150   0.5000   0.0651   -0.856
 151   0.5157   0.0657   -0.833
 152   0.5314   0.0660   -0.802
 153   0.5471   0.0661   -0.773
 154   0.5627   0.0661   -0.745
 155   0.5782   0.0658   -0.716
 156   0.5937   0.0653   -0.684
 157   0.6091   0.0647   -0.650
 158   0.6243   0.0638   -0.624
 159   0.6395   0.0629   -0.589
 160   0.6545   0.0617   -0.564
 161   0.6694   0.0605   -0.535
 162   0.6841   0.0591   -0.505
 163   0.6986   0.0576   -0.488
 164   0.7129   0.0560   -0.463
 165   0.7270   0.0543   -0.442
 166   0.7409   0.0525   -0.419
 167   0.7545   0.0507   -0.412
 168   0.7679   0.0488   -0.387
 169   0.7810   0.0468   -0.377
 170   0.7939   0.0448   -0.366
 171   0.8065   0.0427   -0.356
 172   0.8187   0.0407   -0.345
 173   0.8307   0.0386   -0.336
 174   0.8423   0.0365   -0.337
 175   0.8536   0.0343   -0.325
 176   0.8645   0.0322   -0.316
 177   0.8751   0.0301   -0.318
 178   0.8853   0.0280   -0.313
 179   0.8951   0.0260   -0.299
 180   0.9045   0.0239   -0.303
 181   0.9135   0.0219   -0.287
 182   0.9222   0.0200   -0.289
 183   0.9304   0.0181   -0.277
 184   0.9382   0.0162   -0.269
 185   0.9455   0.0144   -0.261
 186   0.9524   0.0127   -0.256
 187   0.9589   0.0111   -0.241
 188   0.9649   0.0095   -0.219
 189   0.9704   0.0081   -0.209
 190   0.9755   0.0068   -0.208
 191   0.9801   0.0055   -0.182
 192   0.9843   0.0044   -0.161
 193   0.9880   0.0034   -0.131
 194   0.9911   0.0025   -0.152
 195   0.9938   0.0017   -0.104
 196   0.9961   0.0011   -0.058
 197   0.9978   0.0006   -0.097
 198   0.9990   0.0003   -0.013
 199   0.9998   0.0001   -0.122

 Maximum panel corner angle =  8.673   at  i,x,y  = 101   0.0002  -0.0032

 Enter corner angle criterion for refinement (deg):   4.336
 Enter type of spline parameter (1=uniform, 2=arclength):   1
 Enter refinement x limits:  -0.10000   1.10000
 Number of points added:           32
 Max thickness =     0.140932  at x =   0.169
 Max camber    =     0.111536  at x =   0.437

 Maximum panel corner angle =  3.937   at  i,x,y  =  94   0.0089   0.0326

.GDES   c>  
 Buffer airfoil is not identical to current airfoil

 XFOIL   c>  
 Blunt trailing edge.  Gap =  0.00027

 Paneling parameters used...
   Number of panel nodes       160
   Panel bunching parameter    1.000
   TE/LE panel density ratio   0.150
   Refined-area/LE panel density ratio    0.200
   Top    side refined area x/c limits  1.000 1.000
   Bottom side refined area x/c limits  1.000 1.000

 XFOIL   c>  
Enter output filename   s>  
 XFOIL   c>  
.OPERi   c>   Current iteration limit:          20

Enter new iteration limit   i>  
Enter new iteration limit   i>  
Enter new iteration limit   i>  
.OPERi   c>  
 M  =    0.0000
 Re =  0.3000E+06

.OPERv   c>  
 Sonic Cp =   -420.65      Sonic Q/Qinf =    22.825


.OPERv   c>  
 Polar  1 newly created for accumulation
 Airfoil archived with polar: 000114                                          

Enter  polar save filename  OR  <return> for no file   s>  
 New polar save file available

Enter  polar dump filename  OR  <return> for no file   s>  
 Polar dump file will NOT be written

 Polar accumulation enabled

.OPERva   c>   Calculating unit vorticity distributions ...
 Calculating wake trajectory ...
 Calculating source influence matrix ...

 Solving BL system ...

 Initializing BL ...
    side            1  ...
 MRCHUE: Inverse mode at  55     Hk =   4.156
 MRCHUE: Inverse mode at  56     Hk =   4.991
 MRCHUE: Inverse mode at  57     Hk =   5.812
 MRCHUE: Inverse mode at  58     Hk =   6.624
 MRCHUE: Inverse mode at  59     Hk =   7.432
 MRCHUE: Inverse mode at  60     Hk =   8.238
 MRCHUE: Inverse mode at  61     Hk =   9.045
 MRCHUE: Inverse mode at  62     Hk =   6.945
 MRCHUE: Inverse mode at  63     Hk =   4.213
 MRCHUE: Inverse mode at  64     Hk =   2.556
 MRCHUE: Convergence failed at  86  side 1    Res =  0.9144E+01
    side            2  ...
 MRCHUE: Inverse mode at  26     Hk =   4.248
 MRCHUE: Inverse mode at  27     Hk =   4.903
 MRCHUE: Inverse mode at  28     Hk =   5.579
 MRCHUE: Inverse mode at  29     Hk =   6.287
 MRCHUE: Inverse mode at  30     Hk =   7.035
 MRCHUE: Inverse mode at  31     Hk =   7.831
 MRCHUE: Inverse mode at  32     Hk =   8.679
 MRCHUE: Inverse mode at  33     Hk =   9.574
 MRCHUE: Inverse mode at  34     Hk =   6.983
 MRCHUE: Inverse mode at  35     Hk =   4.009
 MRCHUE: Inverse mode at  36     Hk =   2.500
 MRCHUE: Inverse mode at  37     Hk =   2.500

 MRCHDU: Convergence failed at  86  side 1    Res =  0.2112E+02
 Side 1  free  transition at x/c =  0.5317   62
 Side 2  free  transition at x/c =  0.1924   34

   1   rms: 0.2481E+00   max: 0.1249E+01   T at   34  2   RLX: 0.477
       a =  2.000      CL =  1.5000
      Cm = -0.2741     CD =  0.01394   =>   CDf =  0.00805    CDp =  0.00589

 Side 1  free  transition at x/c =  0.5409   61
 Side 2  free  transition at x/c =  0.1810   34

   2   rms: 0.1028E+00   max: 0.8411E+00   T at   34  2
       a =  2.000      CL =  1.4376
      Cm = -0.2595     CD =  0.01766   =>   CDf =  0.00794    CDp =  0.00972

 MRCHDU: Convergence failed at  63  side 1    Res =  0.1185E+02
 MRCHDU: Convergence failed at  64  side 1    Res =  0.5022E+01
 MRCHDU: Convergence failed at  65  side 1    Res =  0.2304E+01
 MRCHDU: Convergence failed at  66  side 1    Res =  0.2414E+01
 MRCHDU: Convergence failed at  67  side 1    Res =  0.2703E+01
 MRCHDU: Convergence failed at  68  side 1    Res =  0.3113E+01
 MRCHDU: Convergence failed at  69  side 1    Res =  0.3785E+01
 MRCHDU: Convergence failed at  70  side 1    Res =  0.2613E+01
 MRCHDU: Convergence failed at  71  side 1    Res =  0.2989E+01
 MRCHDU: Convergence failed at  72  side 1    Res =  0.3366E+01
 MRCHDU: Convergence failed at  73  side 1    Res =  0.1137E+02
 MRCHDU: Convergence failed at  74  side 1    Res =  0.1671E+02
 MRCHDU: Convergence failed at  75  side 1    Res =  0.2805E+02
 MRCHDU: Convergence failed at  76  side 1    Res =  0.5926E+02
 MRCHDU: Convergence failed at  77  side 1    Res =  0.1435E+02
 MRCHDU: Convergence failed at  78  side 1    Res =  0.1693E+02
 MRCHDU: Convergence failed at  79  side 1    Res =  0.2417E+02
 MRCHDU: Convergence failed at  80  side 1    Res =  0.2593E+02
 MRCHDU: Convergence failed at  81  side 1    Res =  0.3777E+02
 MRCHDU: Convergence failed at  82  side 1    Res =  0.5787E+02
 MRCHDU: Convergence failed at  83  side 1    Res =  0.3881E+02
 MRCHDU: Convergence failed at  84  side 1    Res =  0.6273E+02
 MRCHDU: Convergence failed at  85  side 1    Res =  0.2106E+02
 Side 1  free  transition at x/c =  0.5609   62
 Side 2  free  transition at x/c =  0.1672   33

   3   rms: 0.7075E+00   max: 0.3808E+01   D at   84  1   RLX: 0.343
       a =  2.000      CL =  1.6457
      Cm = -0.4013     CD =  0.00850   =>   CDf =  0.00559    CDp =  0.00291

 Side 1  free  transition at x/c =  0.5387   61
 Side 2  free  transition at x/c =  0.1623   33

   4   rms: 0.2530E+00   max: -.1222E+01   D at   67  1   RLX: 0.409
       a =  2.000      CL =  1.4575
      Cm = -0.2978     CD =  0.02313   =>   CDf =  0.00673    CDp =  0.01641

 MRCHDU: Convergence failed at  61  side 1    Res =  0.2565E+01
 Side 1  free  transition at x/c =  0.5558   61
 Side 2  free  transition at x/c =  0.1622   34

   5   rms: 0.5105E+00   max: -.3853E+01   D at   66  1   RLX: 0.130
       a =  2.000      CL =  1.4165
      Cm = -0.2820     CD =  0.01982   =>   CDf =  0.00660    CDp =  0.01322

 Side 1  free  transition at x/c =  0.5651   62
 Side 2  free  transition at x/c =  0.1601   34

   6   rms: 0.2174E+00   max: -.9950E+00   D at   69  1   RLX: 0.503
       a =  2.000      CL =  1.4327
      Cm = -0.2712     CD =  0.01705   =>   CDf =  0.00679    CDp =  0.01026

 Side 1  free  transition at x/c =  0.5650   63
 Side 2  free  transition at x/c =  0.1633   33

   7   rms: 0.1340E+00   max: -.5597E+00   D at   84  1   RLX: 0.893
       a =  2.000      CL =  1.4860
      Cm = -0.2705     CD =  0.01591   =>   CDf =  0.00775    CDp =  0.00817

 Side 1  free  transition at x/c =  0.5566   62
 Side 2  free  transition at x/c =  0.1693   33

   8   rms: 0.5485E-01   max: -.2816E+00   D at   84  1
       a =  2.000      CL =  1.4434
      Cm = -0.2608     CD =  0.01718   =>   CDf =  0.00781    CDp =  0.00938

 Side 1  free  transition at x/c =  0.5546   62
 Side 2  free  transition at x/c =  0.1669   33

   9   rms: 0.1383E-01   max: -.9825E-01   D at   85  1
       a =  2.000      CL =  1.4329
      Cm = -0.2586     CD =  0.01730   =>   CDf =  0.00767    CDp =  0.00963

 Side 1  free  transition at x/c =  0.5547   62
 Side 2  free  transition at x/c =  0.1659   33

  10   rms: 0.8737E-03   max: -.9488E-02   D at   85  1
       a =  2.000      CL =  1.4323
      Cm = -0.2585     CD =  0.01730   =>   CDf =  0.00767    CDp =  0.00963

 Side 1  free  transition at x/c =  0.5547   62
 Side 2  free  transition at x/c =  0.1659   33

  11   rms: 0.9036E-05   max: -.8814E-04   D at   85  1
       a =  2.000      CL =  1.4323
      Cm = -0.2585     CD =  0.01730   =>   CDf =  0.00767    CDp =  0.00963

 Point added to stored polar  1
 Point written to save file  000114M0.04.log                                 
 Dump file unspecified or not available
 Calculating wake trajectory ...
 Calculating source influence matrix ...

 Solving BL system ...

 Side 1  free  transition at x/c =  0.5547   62
 Side 2  free  transition at x/c =  0.1659   33

   1   rms: 0.1673E+00   max: -.1184E+01   T at   33  2   RLX: 0.422
       a =  3.000      CL =  1.4789
      Cm = -0.2584     CD =  0.01737   =>   CDf =  0.00768    CDp =  0.00969

 Side 1  free  transition at x/c =  0.5473   62
 Side 2  free  transition at x/c =  0.1778   34

   2   rms: 0.1085E+00   max: 0.8760E+00   D at   34  2
       a =  3.000      CL =  1.5439
      Cm = -0.2585     CD =  0.01775   =>   CDf =  0.00758    CDp =  0.01017

 Side 1  free  transition at x/c =  0.5398   62
 Side 2  free  transition at x/c =  0.1861   34

   3   rms: 0.2504E-01   max: -.1679E+00   T at   34  2
       a =  3.000      CL =  1.5436
      Cm = -0.2585     CD =  0.01766   =>   CDf =  0.00785    CDp =  0.00982

 Side 1  free  transition at x/c =  0.5386   62
 Side 2  free  transition at x/c =  0.1878   34

   4   rms: 0.2903E-02   max: -.2304E-01   D at   36  2
       a =  3.000      CL =  1.5437
      Cm = -0.2585     CD =  0.01770   =>   CDf =  0.00780    CDp =  0.00990

 Side 1  free  transition at x/c =  0.5386   62
 Side 2  free  transition at x/c =  0.1877   34

   5   rms: 0.5499E-04   max: 0.5181E-03   T at   34  2
       a =  3.000      CL =  1.5437
      Cm = -0.2585     CD =  0.01770   =>   CDf =  0.00780    CDp =  0.00990

 Point added to stored polar  1
 Point written to save file  000114M0.04.log                                 
 Dump file unspecified or not available
 Calculating wake trajectory ...
 Calculating source influence matrix ...

 Solving BL system ...

 Side 1  free  transition at x/c =  0.5386   62
 Side 2  free  transition at x/c =  0.1877   34

   1   rms: 0.1659E+00   max: -.1360E+01   T at   34  2   RLX: 0.368
       a =  4.000      CL =  1.5816
      Cm = -0.2582     CD =  0.01780   =>   CDf =  0.00782    CDp =  0.00998

 Side 1  free  transition at x/c =  0.5317   62
 Side 2  free  transition at x/c =  0.1957   34

   2   rms: 0.1209E+00   max: -.7972E+00   T at   34  2   RLX: 0.627
       a =  4.000      CL =  1.6246
      Cm = -0.2579     CD =  0.01829   =>   CDf =  0.00744    CDp =  0.01085

 Side 1  free  transition at x/c =  0.5258   63
 Side 2  free  transition at x/c =  0.2073   34

   3   rms: 0.3887E-01   max: 0.2459E+00   D at   34  2
       a =  4.000      CL =  1.6527
      Cm = -0.2582     CD =  0.01831   =>   CDf =  0.00783    CDp =  0.01048

 Side 1  free  transition at x/c =  0.5228   62
 Side 2  free  transition at x/c =  0.2123   34

   4   rms: 0.6657E-02   max: -.5479E-01   D at   34  2
       a =  4.000      CL =  1.6526
      Cm = -0.2582     CD =  0.01837   =>   CDf =  0.00785    CDp =  0.01052

 Side 1  free  transition at x/c =  0.5224   62
 Side 2  free  transition at x/c =  0.2124   34

   5   rms: 0.6524E-04   max: 0.6128E-03   D at   35  2
       a =  4.000      CL =  1.6526
      Cm = -0.2582     CD =  0.01837   =>   CDf =  0.00784    CDp =  0.01052

 Point added to stored polar  1
 Point written to save file  000114M0.04.log                                 
 Dump file unspecified or not available
 Calculating wake trajectory ...
 Calculating source influence matrix ...

 Solving BL system ...

 Side 1  free  transition at x/c =  0.5224   62
 Side 2  free  transition at x/c =  0.2124   34

   1   rms: 0.1479E+00   max: -.1018E+01   T at   34  2   RLX: 0.491
       a =  5.000      CL =  1.6985
      Cm = -0.2568     CD =  0.01871   =>   CDf =  0.00761    CDp =  0.01110

 Side 1  free  transition at x/c =  0.5136   63
 Side 2  free  transition at x/c =  0.2255   34

   2   rms: 0.8114E-01   max: -.6212E+00   T at   34  2   RLX: 0.805
       a =  5.000      CL =  1.7428
      Cm = -0.2567     CD =  0.01900   =>   CDf =  0.00776    CDp =  0.01124

 Side 1  free  transition at x/c =  0.5075   63
 Side 2  free  transition at x/c =  0.2367   34

   3   rms: 0.5274E-01   max: -.3090E+00   D at   34  2
       a =  5.000      CL =  1.7545
      Cm = -0.2567     CD =  0.01915   =>   CDf =  0.00775    CDp =  0.01140

 Side 1  free  transition at x/c =  0.5065   63
 Side 2  free  transition at x/c =  0.2425   35

   4   rms: 0.1888E-01   max: 0.2522E+00   D at   35  2
       a =  5.000      CL =  1.7554
      Cm = -0.2569     CD =  0.01908   =>   CDf =  0.00778    CDp =  0.01130

 Side 1  free  transition at x/c =  0.5064   63
 Side 2  free  transition at x/c =  0.2420   35

   5   rms: 0.2431E-02   max: 0.2393E-01   D at   35  2
       a =  5.000      CL =  1.7554
      Cm = -0.2569     CD =  0.01908   =>   CDf =  0.00778    CDp =  0.01131

 Side 1  free  transition at x/c =  0.5064   63
 Side 2  free  transition at x/c =  0.2419   35

   6   rms: 0.9780E-05   max: -.1148E-03   D at   37  2
       a =  5.000      CL =  1.7554
      Cm = -0.2569     CD =  0.01908   =>   CDf =  0.00778    CDp =  0.01131

 Point added to stored polar  1
 Point written to save file  000114M0.04.log                                 
 Dump file unspecified or not available
 Calculating wake trajectory ...
 Calculating source influence matrix ...

 Solving BL system ...

 Side 1  free  transition at x/c =  0.5064   63
 Side 2  free  transition at x/c =  0.2419   35

   1   rms: 0.1786E+00   max: -.1506E+01   T at   35  2   RLX: 0.332
       a =  6.000      CL =  1.7926
      Cm = -0.2572     CD =  0.01936   =>   CDf =  0.00752    CDp =  0.01184

 Side 1  free  transition at x/c =  0.5019   63
 Side 2  free  transition at x/c =  0.2530   34

   2   rms: 0.1096E+00   max: -.8451E+00   T at   34  2   RLX: 0.592
       a =  6.000      CL =  1.8243
      Cm = -0.2551     CD =  0.02001   =>   CDf =  0.00776    CDp =  0.01225

 Side 1  free  transition at x/c =  0.4946   63
 Side 2  free  transition at x/c =  0.2686   35

   3   rms: 0.4860E-01   max: 0.5378E+00   D at   35  2
       a =  6.000      CL =  1.8523
      Cm = -0.2548     CD =  0.02010   =>   CDf =  0.00733    CDp =  0.01277

 Side 1  free  transition at x/c =  0.4899   64
 Side 2  free  transition at x/c =  0.2755   34

   4   rms: 0.9727E-02   max: -.9189E-01   D at   35  2
       a =  6.000      CL =  1.8526
      Cm = -0.2548     CD =  0.02009   =>   CDf =  0.00763    CDp =  0.01246

 Side 1  free  transition at x/c =  0.4904   64
 Side 2  free  transition at x/c =  0.2766   34

   5   rms: 0.4957E-03   max: -.4924E-02   D at    4  1
       a =  6.000      CL =  1.8527
      Cm = -0.2548     CD =  0.02010   =>   CDf =  0.00762    CDp =  0.01248

 Side 1  free  transition at x/c =  0.4904   64
 Side 2  free  transition at x/c =  0.2766   34

   6   rms: 0.1775E-05   max: -.1188E-04   D at   64  1
       a =  6.000      CL =  1.8527
      Cm = -0.2548     CD =  0.02010   =>   CDf =  0.00762    CDp =  0.01248

 Point added to stored polar  1
 Point written to save file  000114M0.04.log                                 
 Dump file unspecified or not available
 Calculating wake trajectory ...
 Calculating source influence matrix ...

 Solving BL system ...

 Side 1  free  transition at x/c =  0.4904   64
 Side 2  free  transition at x/c =  0.2766   34

   1   rms: 0.1625E+00   max: -.1429E+01   T at   34  2   RLX: 0.350
       a =  7.000      CL =  1.8867
      Cm = -0.2541     CD =  0.02050   =>   CDf =  0.00763    CDp =  0.01286

 MRCHDU: Convergence failed at  36  side 2    Res =  0.3365E+01
 MRCHDU: Convergence failed at  37  side 2    Res =  0.4814E+01
 MRCHDU: Convergence failed at  38  side 2    Res =  0.2726E+01
 MRCHDU: Convergence failed at  39  side 2    Res =  0.4214E+01
 MRCHDU: Convergence failed at  40  side 2    Res =  0.5441E+01
 MRCHDU: Convergence failed at  41  side 2    Res =  0.6406E+01
 MRCHDU: Convergence failed at  42  side 2    Res =  0.6855E+01
 MRCHDU: Convergence failed at  43  side 2    Res =  0.6828E+01
 MRCHDU: Convergence failed at  44  side 2    Res =  0.6442E+01
 MRCHDU: Convergence failed at  45  side 2    Res =  0.5853E+01
 MRCHDU: Convergence failed at  46  side 2    Res =  0.5163E+01
 MRCHDU: Convergence failed at  47  side 2    Res =  0.4497E+01
 MRCHDU: Convergence failed at  48  side 2    Res =  0.3825E+01
 MRCHDU: Convergence failed at  49  side 2    Res =  0.3222E+01
 MRCHDU: Convergence failed at  50  side 2    Res =  0.2705E+01
 MRCHDU: Convergence failed at  51  side 2    Res =  0.4725E+01
 MRCHDU: Convergence failed at  52  side 2    Res =  0.4358E+01
 MRCHDU: Convergence failed at  53  side 2    Res =  0.4145E+01
 MRCHDU: Convergence failed at  54  side 2    Res =  0.4371E+01
 MRCHDU: Convergence failed at  55  side 2    Res =  0.4431E+01
 MRCHDU: Convergence failed at  56  side 2    Res =  0.4906E+01
 Side 1  free  transition at x/c =  0.4851   64
 Side 2  free  transition at x/c =  0.2952   35

   2   rms: 0.1946E+00   max: -.9549E+00   D at   56  2   RLX: 0.524
       a =  7.000      CL =  1.9166
      Cm = -0.2523     CD =  0.02078   =>   CDf =  0.00658    CDp =  0.01420

 Side 1  free  transition at x/c =  0.4799   64
 Side 2  free  transition at x/c =  0.3071   35

   3   rms: 0.7437E-01   max: -.6477E+00   D at   37  2   RLX: 0.772
       a =  7.000      CL =  1.9381
      Cm = -0.2521     CD =  0.02131   =>   CDf =  0.00768    CDp =  0.01363

 Side 1  free  transition at x/c =  0.4753   64
 Side 2  free  transition at x/c =  0.3155   36

   4   rms: 0.3622E-01   max: -.3168E+00   D at   37  2
       a =  7.000      CL =  1.9457
      Cm = -0.2523     CD =  0.02128   =>   CDf =  0.00749    CDp =  0.01379

 Side 1  free  transition at x/c =  0.4744   64
 Side 2  free  transition at x/c =  0.3206   36

   5   rms: 0.6661E-02   max: -.8147E-01   D at   36  2
       a =  7.000      CL =  1.9458
      Cm = -0.2523     CD =  0.02129   =>   CDf =  0.00740    CDp =  0.01389

 Side 1  free  transition at x/c =  0.4744   64
 Side 2  free  transition at x/c =  0.3206   36

   6   rms: 0.8686E-04   max: -.1175E-02   D at   38  2
       a =  7.000      CL =  1.9458
      Cm = -0.2523     CD =  0.02130   =>   CDf =  0.00740    CDp =  0.01389

 Point added to stored polar  1
 Point written to save file  000114M0.04.log                                 
 Dump file unspecified or not available
 Calculating wake trajectory ...
 Calculating source influence matrix ...

 Solving BL system ...

 Side 1  free  transition at x/c =  0.4744   64
 Side 2  free  transition at x/c =  0.3206   36

   1   rms: 0.1609E+00   max: -.1371E+01   T at   36  2   RLX: 0.365
       a =  8.000      CL =  1.9783
      Cm = -0.2511     CD =  0.02171   =>   CDf =  0.00742    CDp =  0.01429

 Side 1  free  transition at x/c =  0.4684   64
 Side 2  free  transition at x/c =  0.3371   37

   2   rms: 0.1965E+00   max: -.1849E+01   T at   37  2   RLX: 0.270
       a =  8.000      CL =  1.9982
      Cm = -0.2513     CD =  0.02230   =>   CDf =  0.00748    CDp =  0.01481

 Side 1  free  transition at x/c =  0.4660   64
 Side 2  free  transition at x/c =  0.3493   37

   3   rms: 0.1117E+00   max: -.1106E+01   T at   37  2   RLX: 0.452
       a =  8.000      CL =  2.0271
      Cm = -0.2525     CD =  0.02272   =>   CDf =  0.00719    CDp =  0.01553

 Side 1  free  transition at x/c =  0.4629   64
 Side 2  free  transition at x/c =  0.3698   37

   4   rms: 0.4892E-01   max: -.3730E+00   T at   37  2
       a =  8.000      CL =  2.0307
      Cm = -0.2485     CD =  0.02278   =>   CDf =  0.00741    CDp =  0.01537

 MRCHDU: Convergence failed at  39  side 2    Res =  0.2557E+01
 MRCHDU: Convergence failed at  40  side 2    Res =  0.3327E+01
 MRCHDU: Convergence failed at  41  side 2    Res =  0.1177E+02
 MRCHDU: Convergence failed at  42  side 2    Res =  0.8769E+02
 MRCHDU: Convergence failed at  43  side 2    Res =  0.2099E+03
 MRCHDU: Convergence failed at  44  side 2    Res =  0.1898E+02
 Side 1  free  transition at x/c =  0.4583   64
 Side 2  free  transition at x/c =  0.3932   39

   5   rms: 0.8510E-01   max: -.7978E+00   D at   44  2   RLX: 0.627
       a =  8.000      CL =  2.0300
      Cm = -0.2483     CD =  0.02270   =>   CDf =  0.00694    CDp =  0.01577

 Side 1  free  transition at x/c =  0.4584   64
 Side 2  free  transition at x/c =  0.3950   39

   6   rms: 0.1412E-01   max: -.2330E+00   D at   39  2
       a =  8.000      CL =  2.0319
      Cm = -0.2487     CD =  0.02275   =>   CDf =  0.00716    CDp =  0.01560

 Side 1  free  transition at x/c =  0.4585   64
 Side 2  free  transition at x/c =  0.3888   38

   7   rms: 0.2092E-02   max: 0.3639E-01   D at   40  2
       a =  8.000      CL =  2.0319
      Cm = -0.2487     CD =  0.02275   =>   CDf =  0.00716    CDp =  0.01559

 Side 1  free  transition at x/c =  0.4585   64
 Side 2  free  transition at x/c =  0.3893   38

   8   rms: 0.6115E-04   max: -.1172E-02   D at   40  2
       a =  8.000      CL =  2.0319
      Cm = -0.2487     CD =  0.02275   =>   CDf =  0.00716    CDp =  0.01559

 Point added to stored polar  1
 Point written to save file  000114M0.04.log                                 
 Dump file unspecified or not available
 Calculating wake trajectory ...
 Calculating source influence matrix ...

 Solving BL system ...

 Side 1  free  transition at x/c =  0.4585   64
 Side 2  free  transition at x/c =  0.3892   38

   1   rms: 0.1519E+00   max: -.1186E+01   T at   38  2   RLX: 0.422
       a =  9.000      CL =  2.0618
      Cm = -0.2461     CD =  0.02346   =>   CDf =  0.00718    CDp =  0.01628

 Side 1  free  transition at x/c =  0.4509   64
 Side 2  free  transition at x/c =  0.4439   41

   2   rms: 0.1157E+00   max: -.1172E+01   T at   41  2   RLX: 0.427
       a =  9.000      CL =  2.0812
      Cm = -0.2446     CD =  0.02410   =>   CDf =  0.00679    CDp =  0.01731

 Side 1  free  transition at x/c =  0.4477   65
 Side 2  free  transition at x/c =  0.5161   44

   3   rms: 0.1472E+01   max: -.2683E+02   C at   44  2   RLX: 0.019
       a =  9.000      CL =  2.0824
      Cm = -0.2446     CD =  0.02422   =>   CDf =  0.00702    CDp =  0.01720

 Side 1  free  transition at x/c =  0.4476   65
 Side 2  free  transition at x/c =  0.5199   44

   4   rms: 0.2211E+01   max: -.3665E+02   C at   44  2   RLX: 0.014
       a =  9.000      CL =  2.0834
      Cm = -0.2447     CD =  0.02421   =>   CDf =  0.00699    CDp =  0.01721

 Side 1  free  transition at x/c =  0.4475   65
 Side 2  free  transition at x/c =  0.5174   44

   5   rms: 0.1506E+00   max: -.1581E+01   T at   44  2   RLX: 0.316
       a =  9.000      CL =  2.1023
      Cm = -0.2464     CD =  0.02420   =>   CDf =  0.00706    CDp =  0.01714

 Side 1  free  transition at x/c =  0.4460   64
 Side 2 forced transition at x/c =  1.0001   69

   6   rms: 0.5173E-01   max: -.4650E+00   D at   43  2
       a =  9.000      CL =  2.0958
      Cm = -0.2413     CD =  0.02412   =>   CDf =  0.00668    CDp =  0.01744

 Side 1  free  transition at x/c =  0.4426   64
 Side 2 forced transition at x/c =  1.0001   69

   7   rms: 0.6480E-02   max: -.5919E-01   D at   43  2
       a =  9.000      CL =  2.0988
      Cm = -0.2419     CD =  0.02414   =>   CDf =  0.00655    CDp =  0.01759

 Side 1  free  transition at x/c =  0.4426   64
 Side 2 forced transition at x/c =  1.0001   69

   8   rms: 0.4059E-03   max: 0.2958E-02   D at   38  2
       a =  9.000      CL =  2.0989
      Cm = -0.2419     CD =  0.02414   =>   CDf =  0.00655    CDp =  0.01760

 Side 1  free  transition at x/c =  0.4426   64
 Side 2 forced transition at x/c =  1.0001   69

   9   rms: 0.2578E-05   max: 0.2173E-04   C at   69  2
       a =  9.000      CL =  2.0989
      Cm = -0.2419     CD =  0.02414   =>   CDf =  0.00655    CDp =  0.01760

 Point added to stored polar  1
 Point written to save file  000114M0.04.log                                 
 Dump file unspecified or not available
 Calculating wake trajectory ...
 Calculating source influence matrix ...

 Solving BL system ...

 Side 1  free  transition at x/c =  0.4426   64
 Side 2 forced transition at x/c =  1.0001   69

   1   rms: 0.1454E+00   max: 0.3841E+00   T at   64  1
       a = 10.000      CL =  2.1392
      Cm = -0.2312     CD =  0.02686   =>   CDf =  0.00623    CDp =  0.02064

 Side 1  free  transition at x/c =  0.4251   64
 Side 2 forced transition at x/c =  1.0001   68

   2   rms: 0.4521E-01   max: -.2181E+00   D at   80  2
       a = 10.000      CL =  2.1556
      Cm = -0.2342     CD =  0.02646   =>   CDf =  0.00656    CDp =  0.01991

 Side 1  free  transition at x/c =  0.4263   64
 Side 2 forced transition at x/c =  1.0001   68

   3   rms: 0.2777E-02   max: -.2418E-01   D at   80  2
       a = 10.000      CL =  2.1568
      Cm = -0.2344     CD =  0.02670   =>   CDf =  0.00648    CDp =  0.02022

 Side 1  free  transition at x/c =  0.4259   64
 Side 2 forced transition at x/c =  1.0001   68

   4   rms: 0.8477E-04   max: 0.3519E-03   D at   90  1
       a = 10.000      CL =  2.1567
      Cm = -0.2344     CD =  0.02671   =>   CDf =  0.00648    CDp =  0.02022

 Point added to stored polar  1
 Point written to save file  000114M0.04.log                                 
 Dump file unspecified or not available
 Calculating wake trajectory ...
 Calculating source influence matrix ...

 Solving BL system ...

 Side 1  free  transition at x/c =  0.4259   64
 Side 2 forced transition at x/c =  1.0001   68

   1   rms: 0.1240E+00   max: 0.4176E+00   T at   64  1
       a = 11.000      CL =  2.1740
      Cm = -0.2216     CD =  0.03086   =>   CDf =  0.00615    CDp =  0.02471

 Side 1  free  transition at x/c =  0.4063   64
 Side 2 forced transition at x/c =  1.0001   67

   2   rms: 0.4963E-01   max: -.2420E+00   D at   80  2
       a = 11.000      CL =  2.1960
      Cm = -0.2252     CD =  0.03005   =>   CDf =  0.00639    CDp =  0.02366

 Side 1  free  transition at x/c =  0.4083   64
 Side 2 forced transition at x/c =  1.0001   67

   3   rms: 0.4238E-02   max: -.3707E-01   D at   80  2
       a = 11.000      CL =  2.1989
      Cm = -0.2256     CD =  0.03028   =>   CDf =  0.00632    CDp =  0.02396

 Side 1  free  transition at x/c =  0.4077   64
 Side 2 forced transition at x/c =  1.0001   67

   4   rms: 0.7867E-04   max: -.6512E-03   D at   80  2
       a = 11.000      CL =  2.1988
      Cm = -0.2256     CD =  0.03029   =>   CDf =  0.00632    CDp =  0.02396

 Point added to stored polar  1
 Point written to save file  000114M0.04.log                                 
 Dump file unspecified or not available
 Calculating wake trajectory ...
 Calculating source influence matrix ...

 Solving BL system ...

 Side 1  free  transition at x/c =  0.4077   64
 Side 2 forced transition at x/c =  1.0001   67

   1   rms: 0.1274E+00   max: 0.4713E+00   D at   86  1   RLX: 0.881
       a = 12.000      CL =  2.1981
      Cm = -0.2142     CD =  0.03574   =>   CDf =  0.00597    CDp =  0.02977

 Side 1  free  transition at x/c =  0.3882   64
 Side 2 forced transition at x/c =  1.0001   66

   2   rms: 0.3928E-01   max: -.2104E+00   D at   64  1
       a = 12.000      CL =  2.2153
      Cm = -0.2152     CD =  0.03570   =>   CDf =  0.00622    CDp =  0.02947

 Side 1  free  transition at x/c =  0.3880   64
 Side 2 forced transition at x/c =  1.0001   66

   3   rms: 0.8413E-02   max: -.3955E-01   D at   80  2
       a = 12.000      CL =  2.2224
      Cm = -0.2161     CD =  0.03554   =>   CDf =  0.00606    CDp =  0.02948

 Side 1  free  transition at x/c =  0.3872   64
 Side 2 forced transition at x/c =  1.0001   66

   4   rms: 0.1281E-03   max: 0.2379E-02   D at   86  1
       a = 12.000      CL =  2.2224
      Cm = -0.2161     CD =  0.03557   =>   CDf =  0.00608    CDp =  0.02949

 Side 1  free  transition at x/c =  0.3872   64
 Side 2 forced transition at x/c =  1.0001   66

   5   rms: 0.1660E-05   max: -.2372E-04   C at   66  2
       a = 12.000      CL =  2.2224
      Cm = -0.2161     CD =  0.03557   =>   CDf =  0.00608    CDp =  0.02949

 Point added to stored polar  1
 Point written to save file  000114M0.04.log                                 
 Dump file unspecified or not available
 Calculating wake trajectory ...
 Calculating source influence matrix ...

 Solving BL system ...

 Side 1  free  transition at x/c =  0.3872   64
 Side 2 forced transition at x/c =  1.0001   66

   1   rms: 0.1228E+00   max: 0.4485E+00   D at   84  1   RLX: 0.767
       a = 13.000      CL =  2.2267
      Cm = -0.2085     CD =  0.04122   =>   CDf =  0.00571    CDp =  0.03551

 Side 1  free  transition at x/c =  0.3700   64
 Side 2 forced transition at x/c =  1.0001   65

   2   rms: 0.3436E-01   max: 0.2828E+00   D at    2  1
       a = 13.000      CL =  2.2260
      Cm = -0.2065     CD =  0.04322   =>   CDf =  0.00602    CDp =  0.03720

 Side 1  free  transition at x/c =  0.3661   64
 Side 2 forced transition at x/c =  1.0001   65

   3   rms: 0.9778E-02   max: -.5468E-01   D at   86  1
       a = 13.000      CL =  2.2341
      Cm = -0.2073     CD =  0.04264   =>   CDf =  0.00581    CDp =  0.03682

 Side 1  free  transition at x/c =  0.3659   64
 Side 2 forced transition at x/c =  1.0001   65

   4   rms: 0.6806E-03   max: -.4267E-02   D at   77  2
       a = 13.000      CL =  2.2347
      Cm = -0.2074     CD =  0.04266   =>   CDf =  0.00582    CDp =  0.03683

 Side 1  free  transition at x/c =  0.3659   64
 Side 2 forced transition at x/c =  1.0001   65

   5   rms: 0.2299E-04   max: -.1570E-03   D at   77  2
       a = 13.000      CL =  2.2347
      Cm = -0.2074     CD =  0.04266   =>   CDf =  0.00582    CDp =  0.03683

 Point added to stored polar  1
 Point written to save file  000114M0.04.log                                 
 Dump file unspecified or not available
 Calculating wake trajectory ...
 Calculating source influence matrix ...

 Solving BL system ...

 Side 1  free  transition at x/c =  0.3659   64
 Side 2 forced transition at x/c =  1.0001   65

   1   rms: 0.1205E+00   max: 0.4383E+00   D at   83  1   RLX: 0.665
       a = 14.000      CL =  2.2390
      Cm = -0.2022     CD =  0.04845   =>   CDf =  0.00585    CDp =  0.04260

 Side 1  free  transition at x/c =  0.3518   63
 Side 2 forced transition at x/c =  1.0001   65

   2   rms: 0.4358E-01   max: -.2043E+00   D at   63  1
       a = 14.000      CL =  2.2280
      Cm = -0.1993     CD =  0.05292   =>   CDf =  0.00535    CDp =  0.04757

 Side 1  free  transition at x/c =  0.3426   64
 Side 2 forced transition at x/c =  1.0001   64

   3   rms: 0.2211E-01   max: 0.2289E+00   T at    2  1
       a = 14.000      CL =  2.2389
      Cm = -0.1998     CD =  0.05146   =>   CDf =  0.00566    CDp =  0.04581

 Side 1  free  transition at x/c =  0.3438   64
 Side 2 forced transition at x/c =  1.0001   64

   4   rms: 0.3944E-02   max: -.1671E-01   D at   83  1
       a = 14.000      CL =  2.2422
      Cm = -0.2000     CD =  0.05129   =>   CDf =  0.00562    CDp =  0.04568

 Side 1  free  transition at x/c =  0.3437   64
 Side 2 forced transition at x/c =  1.0001   64

   5   rms: 0.1958E-03   max: -.1449E-02   D at   77  2
       a = 14.000      CL =  2.2424
      Cm = -0.2001     CD =  0.05131   =>   CDf =  0.00563    CDp =  0.04568

 Side 1  free  transition at x/c =  0.3437   64
 Side 2 forced transition at x/c =  1.0001   64

   6   rms: 0.7179E-05   max: 0.4832E-04   C at   64  2
       a = 14.000      CL =  2.2424
      Cm = -0.2001     CD =  0.05131   =>   CDf =  0.00563    CDp =  0.04568

 Point added to stored polar  1
 Point written to save file  000114M0.04.log                                 
 Dump file unspecified or not available
 Calculating wake trajectory ...
 Calculating source influence matrix ...

 Solving BL system ...

 Side 1  free  transition at x/c =  0.3437   64
 Side 2 forced transition at x/c =  1.0001   64

   1   rms: 0.1169E+00   max: -.4680E+00   D at   65  1   RLX: 0.598
       a = 15.000      CL =  2.2586
      Cm = -0.1967     CD =  0.05575   =>   CDf =  0.00565    CDp =  0.05010

 Side 1  free  transition at x/c =  0.3309   63
 Side 2 forced transition at x/c =  1.0001   64

   2   rms: 0.6225E-01   max: 0.3174E+00   D at   82  1
       a = 15.000      CL =  2.2310
      Cm = -0.1939     CD =  0.06363   =>   CDf =  0.00551    CDp =  0.05811

 Side 1  free  transition at x/c =  0.3198   62
 Side 2 forced transition at x/c =  1.0001   64

   3   rms: 0.1165E-01   max: -.9520E-01   D at   62  1
       a = 15.000      CL =  2.2327
      Cm = -0.1936     CD =  0.06275   =>   CDf =  0.00543    CDp =  0.05731

 Side 1  free  transition at x/c =  0.3201   62
 Side 2 forced transition at x/c =  1.0001   64

   4   rms: 0.2683E-02   max: -.1290E-01   D at   81  1
       a = 15.000      CL =  2.2352
      Cm = -0.1938     CD =  0.06259   =>   CDf =  0.00536    CDp =  0.05723

 Side 1  free  transition at x/c =  0.3199   62
 Side 2 forced transition at x/c =  1.0001   64

   5   rms: 0.1828E-03   max: -.1216E-02   D at   78  2
       a = 15.000      CL =  2.2354
      Cm = -0.1938     CD =  0.06261   =>   CDf =  0.00537    CDp =  0.05724

 Side 1  free  transition at x/c =  0.3199   62
 Side 2 forced transition at x/c =  1.0001   64

   6   rms: 0.8445E-05   max: 0.4520E-04   C at   64  2
       a = 15.000      CL =  2.2354
      Cm = -0.1938     CD =  0.06262   =>   CDf =  0.00537    CDp =  0.05724

 Point added to stored polar  1
 Point written to save file  000114M0.04.log                                 
 Dump file unspecified or not available

.OPERva   c>  
 XFOIL   c>  
0.1
resp: 
 ===================================================
  XFOIL Version 6.97
  Copyright (C) 2000   Mark Drela, Harold Youngren

  This software comes with ABSOLUTELY NO WARRANTY,
    subject to the GNU General Public License.

  Caveat computor
 ===================================================

 File  xfoil.def  not found

   QUIT    Exit program

  .OPER    Direct operating point(s)
  .MDES    Complex mapping design routine
  .QDES    Surface speed design routine
  .GDES    Geometry design routine

   SAVE f  Write airfoil to labeled coordinate file
   PSAV f  Write airfoil to plain coordinate file
   ISAV f  Write airfoil to ISES coordinate file
   MSAV f  Write airfoil to MSES coordinate file
   REVE    Reverse written-airfoil node ordering
   DELI i  Change written-airfoil file delimiters

   LOAD f  Read buffer airfoil from coordinate file
   NACA i  Set NACA 4,5-digit airfoil and buffer airfoil
   INTE    Set buffer airfoil by interpolating two airfoils
   NORM    Buffer airfoil normalization toggle
   HALF    Halve the number of points in buffer airfoil
   XYCM rr Change CM reference location, currently  0.25000 0.00000

   BEND    Display structural properties of current airfoil

   PCOP    Set current-airfoil panel nodes directly from buffer airfoil points
   PANE    Set current-airfoil panel nodes ( 160 ) based on curvature
  .PPAR    Show/change paneling

  .PLOP    Plotting options

   WDEF f  Write  current-settings file
   RDEF f  Reread current-settings file
   NAME s  Specify new airfoil name
   NINC    Increment name version number

   Z       Zoom    | (available in all menus)
   U       Unzoom  | 

 XFOIL   c>   ...............................................

  G raphics-enable flag:        T
  S ize of plot object          10.00"
  A spect ratio of plot object   0.5500
  P age dimensions              11.00 x  8.50"
  M argins from page edges       0.00",  0.00"
  F ont size (relative)          0.0150
  W indow/screen size fraction   0.8000
  B lowup input method:        Cursor    
  O rientation of plot:        Landscape 
  C olor PostScript output?     F

      Option, Value   (or <Return>)    c>   ...............................................

  G raphics-enable flag:        F
  S ize of plot object          10.00"
  A spect ratio of plot object   0.5500
  P age dimensions              11.00 x  8.50"
  M argins from page edges       0.00",  0.00"
  F ont size (relative)          0.0150
  W indow/screen size fraction   0.8000
  B lowup input method:        Cursor    
  O rientation of plot:        Landscape 
  C olor PostScript output?     F

      Option, Value   (or <Return>)    c>  
 XFOIL   c>  
 Labeled airfoil file.  Name:  000114                                          

 Number of input coordinate points: 200
 Clockwise ordering
 Max thickness =     0.140963  at x =   0.169
 Max camber    =     0.111152  at x =   0.437

  LE  x,y  =  -0.00001   0.00068  |   Chord =   0.99988
  TE  x,y  =   0.99988   0.00005  |

 Current airfoil nodes set from buffer airfoil nodes ( 200 )

 XFOIL   c>  
 You are working with the buffer airfoil

.GDES   c>  
  i       x        y      angle
   2   0.9990   0.0004   -0.009
   3   0.9978   0.0010    0.051
   4   0.9961   0.0017    0.066
   5   0.9938   0.0027    0.062
   6   0.9911   0.0038    0.097
   7   0.9880   0.0052    0.091
   8   0.9843   0.0068    0.111
   9   0.9801   0.0086    0.129
  10   0.9755   0.0105    0.133
  11   0.9704   0.0127    0.136
  12   0.9649   0.0150    0.155
  13   0.9589   0.0175    0.165
  14   0.9524   0.0202    0.181
  15   0.9455   0.0230    0.176
  16   0.9382   0.0259    0.189
  17   0.9304   0.0291    0.201
  18   0.9222   0.0323    0.198
  19   0.9135   0.0357    0.216
  20   0.9045   0.0392    0.209
  21   0.8951   0.0428    0.230
  22   0.8853   0.0466    0.228
  23   0.8751   0.0504    0.234
  24   0.8645   0.0543    0.240
  25   0.8536   0.0583    0.248
  26   0.8423   0.0624    0.259
  27   0.8307   0.0665    0.256
  28   0.8187   0.0707    0.272
  29   0.8065   0.0749    0.284
  30   0.7939   0.0792    0.282
  31   0.7810   0.0835    0.307
  32   0.7679   0.0878    0.307
  33   0.7545   0.0921    0.325
  34   0.7409   0.0965    0.343
  35   0.7270   0.1008    0.357
  36   0.7129   0.1050    0.374
  37   0.6986   0.1093    0.393
  38   0.6841   0.1134    0.416
  39   0.6694   0.1176    0.441
  40   0.6545   0.1216    0.460
  41   0.6395   0.1256    0.495
  42   0.6243   0.1294    0.516
  43   0.6091   0.1332    0.548
  44   0.5937   0.1368    0.583
  45   0.5782   0.1402    0.612
  46   0.5627   0.1435    0.645
  47   0.5471   0.1467    0.685
  48   0.5314   0.1496    0.720
  49   0.5157   0.1524    0.761
  50   0.5000   0.1549    0.794
  51   0.4843   0.1573    0.837
  52   0.4686   0.1593    0.875
  53   0.4529   0.1612    0.916
  54   0.4373   0.1628    0.952
  55   0.4218   0.1641    0.996
  56   0.4063   0.1651    1.031
  57   0.3909   0.1659    1.066
  58   0.3757   0.1663    1.105
  59   0.3605   0.1665    1.131
  60   0.3455   0.1664    1.173
  61   0.3306   0.1659    1.195
  62   0.3159   0.1652    1.224
  63   0.3014   0.1641    1.248
  64   0.2871   0.1628    1.277
  65   0.2730   0.1612    1.287
  66   0.2591   0.1592    1.310
  67   0.2455   0.1570    1.324
  68   0.2321   0.1545    1.335
  69   0.2190   0.1518    1.348
  70   0.2061   0.1488    1.363
  71   0.1935   0.1455    1.370
  72   0.1813   0.1420    1.373
  73   0.1693   0.1383    1.390
  74   0.1577   0.1343    1.400
  75   0.1464   0.1302    1.412
  76   0.1355   0.1259    1.428
  77   0.1249   0.1214    1.451
  78   0.1147   0.1168    1.474
  79   0.1049   0.1120    1.508
  80   0.0955   0.1071    1.544
  81   0.0865   0.1021    1.601
  82   0.0778   0.0970    1.659
  83   0.0696   0.0919    1.735
  84   0.0618   0.0866    1.820
  85   0.0545   0.0813    1.928
  86   0.0476   0.0760    2.056
  87   0.0411   0.0706    2.202
  88   0.0351   0.0652    2.376
  89   0.0296   0.0598    2.567
  90   0.0245   0.0544    2.793
  91   0.0199   0.0489    3.043
  92   0.0157   0.0435    3.334
  93   0.0120   0.0380    3.614
  94   0.0089   0.0326    3.937
  95   0.0062   0.0271    4.249
  96   0.0039   0.0217    4.542
  97   0.0022   0.0163    4.820
  98   0.0010   0.0109    5.019
  99   0.0002   0.0054    5.159
 100   0.0000   0.0000    6.974
 101   0.0002  -0.0032    8.673
 102   0.0010  -0.0064    8.513
 103   0.0022  -0.0095    8.306
 104   0.0039  -0.0126    7.950
 105   0.0062  -0.0154    7.532
 106   0.0089  -0.0181    7.110
 107   0.0120  -0.0205    6.557
 108   0.0157  -0.0227    6.058
 109   0.0199  -0.0246    5.496
 110   0.0245  -0.0263    4.999
 111   0.0296  -0.0276    4.488
 112   0.0351  -0.0286    4.024
 113   0.0411  -0.0292    3.570
 114   0.0476  -0.0295    3.169
 115   0.0545  -0.0294    2.808
 116   0.0618  -0.0289    2.461
 117   0.0696  -0.0281    2.149
 118   0.0778  -0.0269    1.863
 119   0.0865  -0.0253    1.611
 120   0.0955  -0.0235    1.377
 121   0.1049  -0.0213    1.147
 122   0.1147  -0.0188    0.960
 123   0.1249  -0.0160    0.771
 124   0.1355  -0.0130    0.601
 125   0.1464  -0.0097    0.445
 126   0.1577  -0.0063    0.299
 127   0.1693  -0.0027    0.159
 128   0.1813   0.0011    0.044
 129   0.1935   0.0049   -0.077
 130   0.2061   0.0089   -0.191
 131   0.2190   0.0129   -0.288
 132   0.2321   0.0169   -0.373
 133   0.2455   0.0209   -0.468
 134   0.2591   0.0248   -0.538
 135   0.2730   0.0287   -0.613
 136   0.2871   0.0324   -0.672
 137   0.3014   0.0361   -0.732
 138   0.3159   0.0396   -0.775
 139   0.3306   0.0429   -0.817
 140   0.3455   0.0461   -0.854
 141   0.3605   0.0490   -0.878
 142   0.3757   0.0517   -0.904
 143   0.3909   0.0543   -0.908
 144   0.4063   0.0565   -0.922
 145   0.4218   0.0586   -0.922
 146   0.4373   0.0604   -0.919
 147   0.4529   0.0619   -0.909
 148   0.4686   0.0632   -0.892
 149   0.4843   0.0643   -0.876
 150   0.5000   0.0651   -0.856
 151   0.5157   0.0657   -0.833
 152   0.5314   0.0660   -0.802
 153   0.5471   0.0661   -0.773
 154   0.5627   0.0661   -0.745
 155   0.5782   0.0658   -0.716
 156   0.5937   0.0653   -0.684
 157   0.6091   0.0647   -0.650
 158   0.6243   0.0638   -0.624
 159   0.6395   0.0629   -0.589
 160   0.6545   0.0617   -0.564
 161   0.6694   0.0605   -0.535
 162   0.6841   0.0591   -0.505
 163   0.6986   0.0576   -0.488
 164   0.7129   0.0560   -0.463
 165   0.7270   0.0543   -0.442
 166   0.7409   0.0525   -0.419
 167   0.7545   0.0507   -0.412
 168   0.7679   0.0488   -0.387
 169   0.7810   0.0468   -0.377
 170   0.7939   0.0448   -0.366
 171   0.8065   0.0427   -0.356
 172   0.8187   0.0407   -0.345
 173   0.8307   0.0386   -0.336
 174   0.8423   0.0365   -0.337
 175   0.8536   0.0343   -0.325
 176   0.8645   0.0322   -0.316
 177   0.8751   0.0301   -0.318
 178   0.8853   0.0280   -0.313
 179   0.8951   0.0260   -0.299
 180   0.9045   0.0239   -0.303
 181   0.9135   0.0219   -0.287
 182   0.9222   0.0200   -0.289
 183   0.9304   0.0181   -0.277
 184   0.9382   0.0162   -0.269
 185   0.9455   0.0144   -0.261
 186   0.9524   0.0127   -0.256
 187   0.9589   0.0111   -0.241
 188   0.9649   0.0095   -0.219
 189   0.9704   0.0081   -0.209
 190   0.9755   0.0068   -0.208
 191   0.9801   0.0055   -0.182
 192   0.9843   0.0044   -0.161
 193   0.9880   0.0034   -0.131
 194   0.9911   0.0025   -0.152
 195   0.9938   0.0017   -0.104
 196   0.9961   0.0011   -0.058
 197   0.9978   0.0006   -0.097
 198   0.9990   0.0003   -0.013
 199   0.9998   0.0001   -0.122

 Maximum panel corner angle =  8.673   at  i,x,y  = 101   0.0002  -0.0032

 Enter corner angle criterion for refinement (deg):   4.336
 Enter type of spline parameter (1=uniform, 2=arclength):   1
 Enter refinement x limits:  -0.10000   1.10000
 Number of points added:           32
 Max thickness =     0.140932  at x =   0.169
 Max camber    =     0.111536  at x =   0.437

 Maximum panel corner angle =  3.937   at  i,x,y  =  94   0.0089   0.0326

.GDES   c>  
 Buffer airfoil is not identical to current airfoil

 XFOIL   c>  
 Blunt trailing edge.  Gap =  0.00027

 Paneling parameters used...
   Number of panel nodes       160
   Panel bunching parameter    1.000
   TE/LE panel density ratio   0.150
   Refined-area/LE panel density ratio    0.200
   Top    side refined area x/c limits  1.000 1.000
   Bottom side refined area x/c limits  1.000 1.000

 XFOIL   c>  
.OPERi   c>   Current iteration limit:          20

Enter new iteration limit   i>  
Enter new iteration limit   i>  
Enter new iteration limit   i>  
.OPERi   c>  
 M  =    0.0000
 Re =  0.3000E+06

.OPERv   c>  
 Sonic Cp =    -66.86      Sonic Q/Qinf =     9.138


.OPERv   c>  
 Polar  1 newly created for accumulation
 Airfoil archived with polar: 000114                                          

Enter  polar save filename  OR  <return> for no file   s>  
 New polar save file available

Enter  polar dump filename  OR  <return> for no file   s>  
 Polar dump file will NOT be written

 Polar accumulation enabled

.OPERva   c>   Calculating unit vorticity distributions ...
 Calculating wake trajectory ...
 Calculating source influence matrix ...

 Solving BL system ...

 Initializing BL ...
    side            1  ...
 MRCHUE: Inverse mode at  55     Hk =   4.186
 MRCHUE: Inverse mode at  56     Hk =   5.021
 MRCHUE: Inverse mode at  57     Hk =   5.841
 MRCHUE: Inverse mode at  58     Hk =   6.654
 MRCHUE: Inverse mode at  59     Hk =   7.462
 MRCHUE: Inverse mode at  60     Hk =   8.268
 MRCHUE: Inverse mode at  61     Hk =   9.075
 MRCHUE: Inverse mode at  62     Hk =   6.751
 MRCHUE: Inverse mode at  63     Hk =   4.103
 MRCHUE: Inverse mode at  64     Hk =   2.500
 MRCHUE: Convergence failed at  86  side 1    Res =  0.1721E+02
    side            2  ...
 MRCHUE: Inverse mode at  26     Hk =   4.288
 MRCHUE: Inverse mode at  27     Hk =   4.943
 MRCHUE: Inverse mode at  28     Hk =   5.620
 MRCHUE: Inverse mode at  29     Hk =   6.328
 MRCHUE: Inverse mode at  30     Hk =   7.078
 MRCHUE: Inverse mode at  31     Hk =   7.875
 MRCHUE: Inverse mode at  32     Hk =   8.724
 MRCHUE: Inverse mode at  33     Hk =   9.621
 MRCHUE: Inverse mode at  34     Hk =   6.796
 MRCHUE: Inverse mode at  35     Hk =   3.918
 MRCHUE: Inverse mode at  36     Hk =   2.500
 MRCHUE: Inverse mode at  37     Hk =   2.500

 MRCHDU: Convergence failed at  86  side 1    Res =  0.1440E+03
 Side 1  free  transition at x/c =  0.5307   62
 Side 2  free  transition at x/c =  0.1916   34

   1   rms: 0.2600E+00   max: 0.1200E+01   T at   34  2   RLX: 0.465
       a =  2.000      CL =  1.5105
      Cm = -0.2758     CD =  0.01393   =>   CDf =  0.00803    CDp =  0.00590

 Side 1  free  transition at x/c =  0.5394   61
 Side 2  free  transition at x/c =  0.1813   34

   2   rms: 0.1067E+00   max: 0.9099E+00   T at   34  2   RLX: 0.965
       a =  2.000      CL =  1.4452
      Cm = -0.2606     CD =  0.01757   =>   CDf =  0.00790    CDp =  0.00966

 MRCHDU: Convergence failed at  63  side 1    Res =  0.6821E+01
 MRCHDU: Convergence failed at  64  side 1    Res =  0.7212E+01
 MRCHDU: Convergence failed at  65  side 1    Res =  0.3124E+01
 MRCHDU: Convergence failed at  66  side 1    Res =  0.2575E+01
 MRCHDU: Convergence failed at  67  side 1    Res =  0.2896E+01
 MRCHDU: Convergence failed at  68  side 1    Res =  0.3354E+01
 MRCHDU: Convergence failed at  69  side 1    Res =  0.4108E+01
 MRCHDU: Convergence failed at  70  side 1    Res =  0.2609E+01
 MRCHDU: Convergence failed at  71  side 1    Res =  0.2973E+01
 MRCHDU: Convergence failed at  72  side 1    Res =  0.9093E+01
 MRCHDU: Convergence failed at  73  side 1    Res =  0.1275E+02
 MRCHDU: Convergence failed at  74  side 1    Res =  0.1944E+02
 MRCHDU: Convergence failed at  75  side 1    Res =  0.3418E+02
 MRCHDU: Convergence failed at  76  side 1    Res =  0.1072E+02
 MRCHDU: Convergence failed at  77  side 1    Res =  0.1308E+02
 MRCHDU: Convergence failed at  78  side 1    Res =  0.1567E+02
 MRCHDU: Convergence failed at  79  side 1    Res =  0.4084E+02
 MRCHDU: Convergence failed at  80  side 1    Res =  0.2708E+02
 MRCHDU: Convergence failed at  81  side 1    Res =  0.3205E+03
 MRCHDU: Convergence failed at  82  side 1    Res =  0.5975E+02
 MRCHDU: Convergence failed at  83  side 1    Res =  0.5927E+02
 MRCHDU: Convergence failed at  84  side 1    Res =  0.2440E+02
 MRCHDU: Convergence failed at  85  side 1    Res =  0.1786E+02
 Side 1  free  transition at x/c =  0.5581   62
 Side 2  free  transition at x/c =  0.1670   33

   3   rms: 0.6770E+00   max: 0.3554E+01   D at   84  1   RLX: 0.422
       a =  2.000      CL =  1.6038
      Cm = -0.3815     CD =  0.00930   =>   CDf =  0.00581    CDp =  0.00349

 Side 1  free  transition at x/c =  0.5337   60
 Side 2  free  transition at x/c =  0.1606   34

   4   rms: 0.3043E+00   max: -.1384E+01   T at   60  1   RLX: 0.361
       a =  2.000      CL =  1.4476
      Cm = -0.2769     CD =  0.02813   =>   CDf =  0.00568    CDp =  0.02245

 Side 1  free  transition at x/c =  0.5557   62
 Side 2  free  transition at x/c =  0.1636   33

   5   rms: 0.1807E+01   max: -.7824E+01   D at   70  1   RLX: 0.064
       a =  2.000      CL =  1.4699
      Cm = -0.2572     CD =  0.01989   =>   CDf =  0.00601    CDp =  0.01388

 Side 1  free  transition at x/c =  0.5703   63
 Side 2  free  transition at x/c =  0.1688   33

   6   rms: 0.1154E+01   max: -.5789E+01   D at   73  1   RLX: 0.086
       a =  2.000      CL =  1.5042
      Cm = -0.2561     CD =  0.01665   =>   CDf =  0.00621    CDp =  0.01044

 Side 1  free  transition at x/c =  0.5783   63
 Side 2  free  transition at x/c =  0.1742   34

   7   rms: 0.6522E+00   max: -.3271E+01   D at   77  1   RLX: 0.153
       a =  2.000      CL =  1.5309
      Cm = -0.2606     CD =  0.01354   =>   CDf =  0.00642    CDp =  0.00712

 Side 1  free  transition at x/c =  0.5799   63
 Side 2  free  transition at x/c =  0.1756   34

   8   rms: 0.2501E+00   max: -.1411E+01   D at   78  1   RLX: 0.354
       a =  2.000      CL =  1.5190
      Cm = -0.2608     CD =  0.01354   =>   CDf =  0.00688    CDp =  0.00665

 Side 1  free  transition at x/c =  0.5771   63
 Side 2  free  transition at x/c =  0.1741   34

   9   rms: 0.1293E+00   max: 0.6276E+00   D at   64  1   RLX: 0.837
       a =  2.000      CL =  1.4586
      Cm = -0.2605     CD =  0.01640   =>   CDf =  0.00718    CDp =  0.00922

 Side 1  free  transition at x/c =  0.5580   62
 Side 2  free  transition at x/c =  0.1686   33

  10   rms: 0.3704E-01   max: -.3742E+00   D at   65  1
       a =  2.000      CL =  1.4387
      Cm = -0.2593     CD =  0.01738   =>   CDf =  0.00762    CDp =  0.00976

 Side 1  free  transition at x/c =  0.5535   62
 Side 2  free  transition at x/c =  0.1655   33

  11   rms: 0.4079E-02   max: -.6706E-01   D at   65  1
       a =  2.000      CL =  1.4387
      Cm = -0.2593     CD =  0.01744   =>   CDf =  0.00765    CDp =  0.00979

 Side 1  free  transition at x/c =  0.5531   62
 Side 2  free  transition at x/c =  0.1652   33

  12   rms: 0.1130E-03   max: -.1808E-02   D at   65  1
       a =  2.000      CL =  1.4387
      Cm = -0.2593     CD =  0.01744   =>   CDf =  0.00765    CDp =  0.00979

 Side 1  free  transition at x/c =  0.5531   62
 Side 2  free  transition at x/c =  0.1652   33

  13   rms: 0.6308E-06   max: 0.4971E-05   D at    4  1
       a =  2.000      CL =  1.4387
      Cm = -0.2593     CD =  0.01744   =>   CDf =  0.00765    CDp =  0.00979

 Point added to stored polar  1
 Point written to save file  000114M0.1.log                                  
 Dump file unspecified or not available
 Calculating wake trajectory ...
 Calculating source influence matrix ...

 Solving BL system ...

 Side 1  free  transition at x/c =  0.5531   62
 Side 2  free  transition at x/c =  0.1652   33

   1   rms: 0.1660E+00   max: -.1136E+01   T at   33  2   RLX: 0.440
       a =  3.000      CL =  1.4879
      Cm = -0.2593     CD =  0.01751   =>   CDf =  0.00766    CDp =  0.00985

 Side 1  free  transition at x/c =  0.5457   62
 Side 2  free  transition at x/c =  0.1773   34

   2   rms: 0.1036E+00   max: 0.7661E+00   D at   34  2
       a =  3.000      CL =  1.5530
      Cm = -0.2596     CD =  0.01800   =>   CDf =  0.00759    CDp =  0.01041

 Side 1  free  transition at x/c =  0.5385   62
 Side 2  free  transition at x/c =  0.1853   33

   3   rms: 0.3228E-01   max: -.2427E+00   D at   34  2
       a =  3.000      CL =  1.5494
      Cm = -0.2590     CD =  0.01798   =>   CDf =  0.00781    CDp =  0.01016

 Side 1  free  transition at x/c =  0.5369   62
 Side 2  free  transition at x/c =  0.1871   34

   4   rms: 0.2377E-01   max: 0.2251E+00   D at   34  2
       a =  3.000      CL =  1.5504
      Cm = -0.2593     CD =  0.01787   =>   CDf =  0.00781    CDp =  0.01006

 Side 1  free  transition at x/c =  0.5369   62
 Side 2  free  transition at x/c =  0.1872   34

   5   rms: 0.3562E-02   max: 0.2827E-01   D at   34  2
       a =  3.000      CL =  1.5504
      Cm = -0.2593     CD =  0.01787   =>   CDf =  0.00779    CDp =  0.01008

 Side 1  free  transition at x/c =  0.5369   62
 Side 2  free  transition at x/c =  0.1871   34

   6   rms: 0.2193E-04   max: -.1924E-03   D at   34  2
       a =  3.000      CL =  1.5504
      Cm = -0.2593     CD =  0.01787   =>   CDf =  0.00779    CDp =  0.01008

 Point added to stored polar  1
 Point written to save file  000114M0.1.log                                  
 Dump file unspecified or not available
 Calculating wake trajectory ...
 Calculating source influence matrix ...

 Solving BL system ...

 Side 1  free  transition at x/c =  0.5369   62
 Side 2  free  transition at x/c =  0.1871   34

   1   rms: 0.1830E+00   max: -.1520E+01   T at   34  2   RLX: 0.329
       a =  4.000      CL =  1.5854
      Cm = -0.2592     CD =  0.01788   =>   CDf =  0.00780    CDp =  0.01008

 Side 1  free  transition at x/c =  0.5308   62
 Side 2  free  transition at x/c =  0.1951   34

   2   rms: 0.1213E+00   max: -.7627E+00   T at   34  2   RLX: 0.656
       a =  4.000      CL =  1.6330
      Cm = -0.2587     CD =  0.01842   =>   CDf =  0.00744    CDp =  0.01098

 Side 1  free  transition at x/c =  0.5245   63
 Side 2  free  transition at x/c =  0.2069   34

   3   rms: 0.3792E-01   max: -.2058E+00   T at   34  2
       a =  4.000      CL =  1.6622
      Cm = -0.2593     CD =  0.01859   =>   CDf =  0.00785    CDp =  0.01074

 Side 1  free  transition at x/c =  0.5215   62
 Side 2  free  transition at x/c =  0.2117   34

   4   rms: 0.8276E-02   max: -.6025E-01   D at   34  2
       a =  4.000      CL =  1.6591
      Cm = -0.2588     CD =  0.01854   =>   CDf =  0.00782    CDp =  0.01072

 Side 1  free  transition at x/c =  0.5210   62
 Side 2  free  transition at x/c =  0.2116   34

   5   rms: 0.1509E-03   max: 0.9841E-03   D at   62  1
       a =  4.000      CL =  1.6592
      Cm = -0.2588     CD =  0.01854   =>   CDf =  0.00780    CDp =  0.01075

 Side 1  free  transition at x/c =  0.5210   62
 Side 2  free  transition at x/c =  0.2116   34

   6   rms: 0.2702E-05   max: 0.1282E-04   D at   86  1
       a =  4.000      CL =  1.6592
      Cm = -0.2588     CD =  0.01854   =>   CDf =  0.00780    CDp =  0.01075

 Point added to stored polar  1
 Point written to save file  000114M0.1.log                                  
 Dump file unspecified or not available
 Calculating wake trajectory ...
 Calculating source influence matrix ...

 Solving BL system ...

 Side 1  free  transition at x/c =  0.5210   62
 Side 2  free  transition at x/c =  0.2116   34

   1   rms: 0.1476E+00   max: -.1019E+01   T at   34  2   RLX: 0.491
       a =  5.000      CL =  1.7063
      Cm = -0.2575     CD =  0.01893   =>   CDf =  0.00756    CDp =  0.01137

 Side 1  free  transition at x/c =  0.5118   63
 Side 2  free  transition at x/c =  0.2240   34

   2   rms: 0.8737E-01   max: -.7383E+00   T at   34  2   RLX: 0.677
       a =  5.000      CL =  1.7442
      Cm = -0.2574     CD =  0.01918   =>   CDf =  0.00776    CDp =  0.01141

 Side 1  free  transition at x/c =  0.5070   63
 Side 2  free  transition at x/c =  0.2342   34

   3   rms: 0.5842E-01   max: -.3296E+00   D at   34  2
       a =  5.000      CL =  1.7636
      Cm = -0.2576     CD =  0.01936   =>   CDf =  0.00774    CDp =  0.01162

 Side 1  free  transition at x/c =  0.5050   63
 Side 2  free  transition at x/c =  0.2416   35

   4   rms: 0.9849E-02   max: 0.1339E+00   D at   35  2
       a =  5.000      CL =  1.7646
      Cm = -0.2578     CD =  0.01934   =>   CDf =  0.00781    CDp =  0.01153

 Side 1  free  transition at x/c =  0.5048   63
 Side 2  free  transition at x/c =  0.2412   35

   5   rms: 0.8932E-03   max: 0.8487E-02   D at   35  2
       a =  5.000      CL =  1.7646
      Cm = -0.2578     CD =  0.01934   =>   CDf =  0.00782    CDp =  0.01152

 Side 1  free  transition at x/c =  0.5048   63
 Side 2  free  transition at x/c =  0.2412   35

   6   rms: 0.5528E-05   max: 0.4829E-04   D at   35  2
       a =  5.000      CL =  1.7646
      Cm = -0.2578     CD =  0.01934   =>   CDf =  0.00782    CDp =  0.01152

 Point added to stored polar  1
 Point written to save file  000114M0.1.log                                  
 Dump file unspecified or not available
 Calculating wake trajectory ...
 Calculating source influence matrix ...

 Solving BL system ...

 Side 1  free  transition at x/c =  0.5048   63
 Side 2  free  transition at x/c =  0.2412   35

   1   rms: 0.1955E+00   max: -.1651E+01   T at   35  2   RLX: 0.303
       a =  6.000      CL =  1.8013
      Cm = -0.2586     CD =  0.01966   =>   CDf =  0.00756    CDp =  0.01210

 Side 1  free  transition at x/c =  0.5005   63
 Side 2  free  transition at x/c =  0.2525   34

   2   rms: 0.1087E+00   max: -.7966E+00   T at   34  2   RLX: 0.628
       a =  6.000      CL =  1.8340
      Cm = -0.2558     CD =  0.02026   =>   CDf =  0.00775    CDp =  0.01251

 Side 1  free  transition at x/c =  0.4924   63
 Side 2  free  transition at x/c =  0.2685   35

   3   rms: 0.4594E-01   max: 0.5097E+00   D at   35  2
       a =  6.000      CL =  1.8607
      Cm = -0.2553     CD =  0.02035   =>   CDf =  0.00733    CDp =  0.01302

 Side 1  free  transition at x/c =  0.4885   64
 Side 2  free  transition at x/c =  0.2747   34

   4   rms: 0.7755E-02   max: -.6712E-01   D at   35  2
       a =  6.000      CL =  1.8609
      Cm = -0.2553     CD =  0.02034   =>   CDf =  0.00763    CDp =  0.01271

 Side 1  free  transition at x/c =  0.4888   64
 Side 2  free  transition at x/c =  0.2756   34

   5   rms: 0.4576E-03   max: -.5011E-02   D at    4  1
       a =  6.000      CL =  1.8610
      Cm = -0.2554     CD =  0.02034   =>   CDf =  0.00762    CDp =  0.01272

 Side 1  free  transition at x/c =  0.4888   64
 Side 2  free  transition at x/c =  0.2756   34

   6   rms: 0.3395E-05   max: 0.1373E-04   D at   75  2
       a =  6.000      CL =  1.8610
      Cm = -0.2554     CD =  0.02034   =>   CDf =  0.00762    CDp =  0.01272

 Point added to stored polar  1
 Point written to save file  000114M0.1.log                                  
 Dump file unspecified or not available
 Calculating wake trajectory ...
 Calculating source influence matrix ...

 Solving BL system ...

 Side 1  free  transition at x/c =  0.4888   64
 Side 2  free  transition at x/c =  0.2756   34

   1   rms: 0.1629E+00   max: -.1375E+01   T at   34  2   RLX: 0.364
       a =  7.000      CL =  1.8988
      Cm = -0.2550     CD =  0.02077   =>   CDf =  0.00764    CDp =  0.01314

 MRCHDU: Convergence failed at  36  side 2    Res =  0.2495E+01
 MRCHDU: Convergence failed at  37  side 2    Res =  0.5590E+01
 MRCHDU: Convergence failed at  38  side 2    Res =  0.4565E+01
 MRCHDU: Convergence failed at  39  side 2    Res =  0.3911E+01
 MRCHDU: Convergence failed at  40  side 2    Res =  0.5195E+01
 MRCHDU: Convergence failed at  41  side 2    Res =  0.6145E+01
 MRCHDU: Convergence failed at  42  side 2    Res =  0.6748E+01
 MRCHDU: Convergence failed at  43  side 2    Res =  0.6812E+01
 MRCHDU: Convergence failed at  44  side 2    Res =  0.6499E+01
 MRCHDU: Convergence failed at  45  side 2    Res =  0.5927E+01
 MRCHDU: Convergence failed at  46  side 2    Res =  0.5271E+01
 MRCHDU: Convergence failed at  47  side 2    Res =  0.4599E+01
 MRCHDU: Convergence failed at  48  side 2    Res =  0.3925E+01
 MRCHDU: Convergence failed at  49  side 2    Res =  0.3309E+01
 MRCHDU: Convergence failed at  50  side 2    Res =  0.2775E+01
 MRCHDU: Convergence failed at  51  side 2    Res =  0.5004E+01
 MRCHDU: Convergence failed at  52  side 2    Res =  0.4616E+01
 MRCHDU: Convergence failed at  53  side 2    Res =  0.4644E+01
 MRCHDU: Convergence failed at  54  side 2    Res =  0.4648E+01
 MRCHDU: Convergence failed at  55  side 2    Res =  0.4685E+01
 MRCHDU: Convergence failed at  56  side 2    Res =  0.5162E+01
 Side 1  free  transition at x/c =  0.4838   63
 Side 2  free  transition at x/c =  0.2948   35

   2   rms: 0.1716E+00   max: -.9179E+00   D at   56  2   RLX: 0.545
       a =  7.000      CL =  1.9098
      Cm = -0.2497     CD =  0.02093   =>   CDf =  0.00687    CDp =  0.01406

 Side 1  free  transition at x/c =  0.4776   63
 Side 2  free  transition at x/c =  0.2972   36

   3   rms: 0.9505E-01   max: -.7254E+00   T at   36  2   RLX: 0.689
       a =  7.000      CL =  1.9390
      Cm = -0.2513     CD =  0.02185   =>   CDf =  0.00746    CDp =  0.01439

 Side 1  free  transition at x/c =  0.4740   64
 Side 2  free  transition at x/c =  0.3069   35

   4   rms: 0.6204E-01   max: -.6765E+00   D at   37  2   RLX: 0.739
       a =  7.000      CL =  1.9482
      Cm = -0.2518     CD =  0.02183   =>   CDf =  0.00751    CDp =  0.01433

 Side 1  free  transition at x/c =  0.4731   64
 Side 2  free  transition at x/c =  0.3166   36

   5   rms: 0.1904E-01   max: -.2202E+00   D at   37  2
       a =  7.000      CL =  1.9531
      Cm = -0.2524     CD =  0.02159   =>   CDf =  0.00744    CDp =  0.01416

 Side 1  free  transition at x/c =  0.4727   64
 Side 2  free  transition at x/c =  0.3191   36

   6   rms: 0.1055E-02   max: -.1784E-01   D at   37  2
       a =  7.000      CL =  1.9531
      Cm = -0.2524     CD =  0.02160   =>   CDf =  0.00740    CDp =  0.01420

 Side 1  free  transition at x/c =  0.4727   64
 Side 2  free  transition at x/c =  0.3189   36

   7   rms: 0.1299E-04   max: -.2046E-03   D at   38  2
       a =  7.000      CL =  1.9531
      Cm = -0.2524     CD =  0.02160   =>   CDf =  0.00740    CDp =  0.01420

 Point added to stored polar  1
 Point written to save file  000114M0.1.log                                  
 Dump file unspecified or not available
 Calculating wake trajectory ...
 Calculating source influence matrix ...

 Solving BL system ...

 Side 1  free  transition at x/c =  0.4727   64
 Side 2  free  transition at x/c =  0.3189   36

   1   rms: 0.1672E+00   max: -.1467E+01   T at   36  2   RLX: 0.341
       a =  8.000      CL =  1.9841
      Cm = -0.2514     CD =  0.02198   =>   CDf =  0.00742    CDp =  0.01456

 Side 1  free  transition at x/c =  0.4674   64
 Side 2  free  transition at x/c =  0.3337   36

   2   rms: 0.1323E+00   max: -.1502E+01   T at   36  2   RLX: 0.333
       a =  8.000      CL =  2.0099
      Cm = -0.2515     CD =  0.02290   =>   CDf =  0.00751    CDp =  0.01539

 MRCHDU: Convergence failed at  38  side 2    Res =  0.2442E+01
 MRCHDU: Convergence failed at  39  side 2    Res =  0.7364E+02
 MRCHDU: Convergence failed at  40  side 2    Res =  0.5196E+01
 MRCHDU: Convergence failed at  41  side 2    Res =  0.3303E+01
 MRCHDU: Convergence failed at  42  side 2    Res =  0.3138E+01
 MRCHDU: Convergence failed at  43  side 2    Res =  0.3083E+01
 MRCHDU: Convergence failed at  44  side 2    Res =  0.3070E+01
 MRCHDU: Convergence failed at  45  side 2    Res =  0.3105E+01
 MRCHDU: Convergence failed at  46  side 2    Res =  0.4514E+01
 MRCHDU: Convergence failed at  47  side 2    Res =  0.6041E+01
 MRCHDU: Convergence failed at  48  side 2    Res =  0.1017E+02
 MRCHDU: Convergence failed at  49  side 2    Res =  0.4769E+02
 Side 1  free  transition at x/c =  0.4645   63
 Side 2  free  transition at x/c =  0.3520   37

   3   rms: 0.1363E+00   max: -.8389E+00   D at   49  2   RLX: 0.596
       a =  8.000      CL =  2.0206
      Cm = -0.2487     CD =  0.02273   =>   CDf =  0.00673    CDp =  0.01600

 Side 1  free  transition at x/c =  0.4597   64
 Side 2  free  transition at x/c =  0.3725   38

   4   rms: 0.5131E-01   max: -.4096E+00   T at   38  2
       a =  8.000      CL =  2.0378
      Cm = -0.2486     CD =  0.02309   =>   CDf =  0.00727    CDp =  0.01581

 Side 1  free  transition at x/c =  0.4565   64
 Side 2  free  transition at x/c =  0.3863   38

   5   rms: 0.1734E-01   max: -.2097E+00   D at   38  2
       a =  8.000      CL =  2.0369
      Cm = -0.2483     CD =  0.02314   =>   CDf =  0.00716    CDp =  0.01598

 Side 1  free  transition at x/c =  0.4567   64
 Side 2  free  transition at x/c =  0.3848   38

   6   rms: 0.1154E-02   max: 0.1448E-01   C at   38  2
       a =  8.000      CL =  2.0369
      Cm = -0.2483     CD =  0.02314   =>   CDf =  0.00713    CDp =  0.01601

 Side 1  free  transition at x/c =  0.4567   64
 Side 2  free  transition at x/c =  0.3843   38

   7   rms: 0.8865E-05   max: -.1688E-03   D at   40  2
       a =  8.000      CL =  2.0369
      Cm = -0.2483     CD =  0.02314   =>   CDf =  0.00713    CDp =  0.01601

 Point added to stored polar  1
 Point written to save file  000114M0.1.log                                  
 Dump file unspecified or not available
 Calculating wake trajectory ...
 Calculating source influence matrix ...

 Solving BL system ...

 Side 1  free  transition at x/c =  0.4567   64
 Side 2  free  transition at x/c =  0.3843   38

   1   rms: 0.1531E+00   max: -.1175E+01   T at   38  2   RLX: 0.425
       a =  9.000      CL =  2.0655
      Cm = -0.2453     CD =  0.02384   =>   CDf =  0.00715    CDp =  0.01668

 Side 1  free  transition at x/c =  0.4494   64
 Side 2  free  transition at x/c =  0.4265   40

   2   rms: 0.1261E+00   max: -.1259E+01   T at   40  2   RLX: 0.397
       a =  9.000      CL =  2.0903
      Cm = -0.2451     CD =  0.02462   =>   CDf =  0.00682    CDp =  0.01780

 Side 1  free  transition at x/c =  0.4466   64
 Side 2  free  transition at x/c =  0.4813   42

   3   rms: 0.8387E-01   max: -.9064E+00   T at   42  2   RLX: 0.552
       a =  9.000      CL =  2.0939
      Cm = -0.2424     CD =  0.02484   =>   CDf =  0.00709    CDp =  0.01774

 Side 1  free  transition at x/c =  0.4434   64
 Side 2 forced transition at x/c =  1.0001   69

   4   rms: 0.4318E-01   max: 0.4165E+00   D at   42  2
       a =  9.000      CL =  2.0997
      Cm = -0.2407     CD =  0.02472   =>   CDf =  0.00654    CDp =  0.01819

 Side 1  free  transition at x/c =  0.4407   64
 Side 2 forced transition at x/c =  1.0001   69

   5   rms: 0.5952E-02   max: 0.4349E-01   D at   39  2
       a =  9.000      CL =  2.1009
      Cm = -0.2409     CD =  0.02469   =>   CDf =  0.00650    CDp =  0.01820

 Side 1  free  transition at x/c =  0.4407   64
 Side 2 forced transition at x/c =  1.0001   69

   6   rms: 0.3237E-03   max: 0.2454E-02   D at   38  2
       a =  9.000      CL =  2.1010
      Cm = -0.2409     CD =  0.02469   =>   CDf =  0.00649    CDp =  0.01820

 Side 1  free  transition at x/c =  0.4407   64
 Side 2 forced transition at x/c =  1.0001   69

   7   rms: 0.1581E-05   max: 0.8289E-05   D at   38  2
       a =  9.000      CL =  2.1010
      Cm = -0.2409     CD =  0.02469   =>   CDf =  0.00649    CDp =  0.01820

 Point added to stored polar  1
 Point written to save file  000114M0.1.log                                  
 Dump file unspecified or not available
 Calculating wake trajectory ...
 Calculating source influence matrix ...

 Solving BL system ...

 Side 1  free  transition at x/c =  0.4407   64
 Side 2 forced transition at x/c =  1.0001   69

   1   rms: 0.1509E+00   max: -.4087E+00   n at   68  2
       a = 10.000      CL =  2.1475
      Cm = -0.2313     CD =  0.02745   =>   CDf =  0.00617    CDp =  0.02128

 Side 1  free  transition at x/c =  0.4238   64
 Side 2 forced transition at x/c =  1.0001   68

   2   rms: 0.3819E-01   max: -.1928E+00   D at   64  1
       a = 10.000      CL =  2.1548
      Cm = -0.2328     CD =  0.02735   =>   CDf =  0.00650    CDp =  0.02085

 Side 1  free  transition at x/c =  0.4244   64
 Side 2 forced transition at x/c =  1.0001   68

   3   rms: 0.3279E-02   max: -.1636E-01   D at   80  2
       a = 10.000      CL =  2.1568
      Cm = -0.2331     CD =  0.02749   =>   CDf =  0.00641    CDp =  0.02108

 Side 1  free  transition at x/c =  0.4240   64
 Side 2 forced transition at x/c =  1.0001   68

   4   rms: 0.7777E-04   max: 0.3903E-03   D at   89  1
       a = 10.000      CL =  2.1567
      Cm = -0.2331     CD =  0.02749   =>   CDf =  0.00641    CDp =  0.02108

 Point added to stored polar  1
 Point written to save file  000114M0.1.log                                  
 Dump file unspecified or not available
 Calculating wake trajectory ...
 Calculating source influence matrix ...

 Solving BL system ...

 Side 1  free  transition at x/c =  0.4240   64
 Side 2 forced transition at x/c =  1.0001   68

   1   rms: 0.1235E+00   max: 0.4082E+00   T at   64  1
       a = 11.000      CL =  2.1816
      Cm = -0.2217     CD =  0.03169   =>   CDf =  0.00607    CDp =  0.02562

 Side 1  free  transition at x/c =  0.4047   64
 Side 2 forced transition at x/c =  1.0001   67

   2   rms: 0.4157E-01   max: -.2297E+00   D at   64  1
       a = 11.000      CL =  2.1954
      Cm = -0.2239     CD =  0.03115   =>   CDf =  0.00632    CDp =  0.02483

 Side 1  free  transition at x/c =  0.4064   64
 Side 2 forced transition at x/c =  1.0001   67

   3   rms: 0.3354E-02   max: -.2516E-01   D at   80  2
       a = 11.000      CL =  2.1976
      Cm = -0.2243     CD =  0.03135   =>   CDf =  0.00624    CDp =  0.02511

 Side 1  free  transition at x/c =  0.4057   64
 Side 2 forced transition at x/c =  1.0001   67

   4   rms: 0.6095E-04   max: 0.3175E-03   D at   87  1
       a = 11.000      CL =  2.1976
      Cm = -0.2243     CD =  0.03136   =>   CDf =  0.00625    CDp =  0.02511

 Point added to stored polar  1
 Point written to save file  000114M0.1.log                                  
 Dump file unspecified or not available
 Calculating wake trajectory ...
 Calculating source influence matrix ...

 Solving BL system ...

 Side 1  free  transition at x/c =  0.4057   64
 Side 2 forced transition at x/c =  1.0001   67

   1   rms: 0.1234E+00   max: 0.4414E+00   T at   64  1   RLX: 0.860
       a = 12.000      CL =  2.2072
      Cm = -0.2146     CD =  0.03646   =>   CDf =  0.00589    CDp =  0.03057

 Side 1  free  transition at x/c =  0.3869   64
 Side 2 forced transition at x/c =  1.0001   66

   2   rms: 0.3136E-01   max: -.2330E+00   D at   64  1
       a = 12.000      CL =  2.2148
      Cm = -0.2142     CD =  0.03706   =>   CDf =  0.00617    CDp =  0.03089

 Side 1  free  transition at x/c =  0.3857   64
 Side 2 forced transition at x/c =  1.0001   66

   3   rms: 0.6381E-02   max: -.2916E-01   D at   87  1
       a = 12.000      CL =  2.2204
      Cm = -0.2149     CD =  0.03693   =>   CDf =  0.00600    CDp =  0.03093

 Side 1  free  transition at x/c =  0.3851   64
 Side 2 forced transition at x/c =  1.0001   66

   4   rms: 0.1737E-03   max: -.1175E-02   D at   77  2
       a = 12.000      CL =  2.2206
      Cm = -0.2149     CD =  0.03694   =>   CDf =  0.00602    CDp =  0.03093

 Side 1  free  transition at x/c =  0.3851   64
 Side 2 forced transition at x/c =  1.0001   66

   5   rms: 0.6475E-05   max: 0.4204E-04   C at   66  2
       a = 12.000      CL =  2.2206
      Cm = -0.2149     CD =  0.03694   =>   CDf =  0.00602    CDp =  0.03093

 Point added to stored polar  1
 Point written to save file  000114M0.1.log                                  
 Dump file unspecified or not available
 Calculating wake trajectory ...
 Calculating source influence matrix ...

 Solving BL system ...

 Side 1  free  transition at x/c =  0.3851   64
 Side 2 forced transition at x/c =  1.0001   66

   1   rms: 0.1218E+00   max: 0.4340E+00   D at   84  1   RLX: 0.738
       a = 13.000      CL =  2.2266
      Cm = -0.2080     CD =  0.04246   =>   CDf =  0.00604    CDp =  0.03642

 Side 1  free  transition at x/c =  0.3693   63
 Side 2 forced transition at x/c =  1.0001   66

   2   rms: 0.3356E-01   max: -.2105E+00   D at   63  1
       a = 13.000      CL =  2.2206
      Cm = -0.2053     CD =  0.04525   =>   CDf =  0.00555    CDp =  0.03970

 Side 1  free  transition at x/c =  0.3634   64
 Side 2 forced transition at x/c =  1.0001   65

   3   rms: 0.1411E-01   max: -.7397E-01   D at   86  1
       a = 13.000      CL =  2.2315
      Cm = -0.2062     CD =  0.04430   =>   CDf =  0.00578    CDp =  0.03852

 Side 1  free  transition at x/c =  0.3637   64
 Side 2 forced transition at x/c =  1.0001   65

   4   rms: 0.1536E-02   max: -.6714E-02   D at   77  2
       a = 13.000      CL =  2.2329
      Cm = -0.2064     CD =  0.04428   =>   CDf =  0.00578    CDp =  0.03850

 Side 1  free  transition at x/c =  0.3637   64
 Side 2 forced transition at x/c =  1.0001   65

   5   rms: 0.4746E-04   max: -.4134E-03   D at   77  2
       a = 13.000      CL =  2.2329
      Cm = -0.2064     CD =  0.04429   =>   CDf =  0.00578    CDp =  0.03850

 Point added to stored polar  1
 Point written to save file  000114M0.1.log                                Got result {'DD': 0.0173, 'Dmin': 0.01744, 'LL': -1.4323}
Completed successfully in 2.56 seconds. [{'DD': 0.0173, 'Dmin': 0.01744, 'LL': -1.4323}]
  
 Dump file unspecified or not available
 Calculating wake trajectory ...
 Calculating source influence matrix ...

 Solving BL system ...

 Side 1  free  transition at x/c =  0.3637   64
 Side 2 forced transition at x/c =  1.0001   65

   1   rms: 0.1179E+00   max: -.3875E+00   D at   65  1   RLX: 0.650
       a = 14.000      CL =  2.2457
      Cm = -0.2019     CD =  0.04930   =>   CDf =  0.00581    CDp =  0.04349

 Side 1  free  transition at x/c =  0.3506   63
 Side 2 forced transition at x/c =  1.0001   65

   2   rms: 0.5183E-01   max: 0.2564E+00   D at   83  1
       a = 14.000      CL =  2.2232
      Cm = -0.1984     CD =  0.05524   =>   CDf =  0.00570    CDp =  0.04954

 Side 1  free  transition at x/c =  0.3402   62
 Side 2 forced transition at x/c =  1.0001   65

   3   rms: 0.3074E-01   max: -.1733E+00   D at   83  1
       a = 14.000      CL =  2.2458
      Cm = -0.1992     CD =  0.05219   =>   CDf =  0.00526    CDp =  0.04693

 Side 1  free  transition at x/c =  0.3417   64
 Side 2 forced transition at x/c =  1.0001   64

   4   rms: 0.4927E-02   max: -.3462E-01   T at    2  1
       a = 14.000      CL =  2.2430
      Cm = -0.1993     CD =  0.05296   =>   CDf =  0.00608    CDp =  0.04688

 Side 1  free  transition at x/c =  0.3414   63
 Side 2 forced transition at x/c =  1.0001   65

   5   rms: 0.1475E-02   max: -.2859E-01   D at    2  2
       a = 14.000      CL =  2.2428
      Cm = -0.1993     CD =  0.05293   =>   CDf =  0.00565    CDp =  0.04728

 Side 1  free  transition at x/c =  0.3414   63
 Side 2 forced transition at x/c =  1.0001   65

   6   rms: 0.6465E-04   max: -.1206E-02   D at    2  2
       a = 14.000      CL =  2.2428
      Cm = -0.1993     CD =  0.05293   =>   CDf =  0.00565    CDp =  0.04728

 Point added to stored polar  1
 Point written to save file  000114M0.1.log                                  
 Dump file unspecified or not available
 Calculating wake trajectory ...
 Calculating source influence matrix ...

 Solving BL system ...

 Side 1  free  transition at x/c =  0.3414   63
 Side 2 forced transition at x/c =  1.0001   65

   1   rms: 0.3855E+00   max: 0.6300E+01   D at    2  2   RLX: 0.165
       a = 15.000      CL =  2.2518
      Cm = -0.1985     CD =  0.05358   =>   CDf =  0.00526    CDp =  0.04832

 Side 1  free  transition at x/c =  0.3381   63
 Side 2 forced transition at x/c =  1.0001   64

   2   rms: 0.1329E+00   max: 0.6682E+00   D at   82  1
       a = 15.000      CL =  2.2021
      Cm = -0.1925     CD =  0.06959   =>   CDf =  0.00564    CDp =  0.06395

 Side 1  free  transition at x/c =  0.3152   62
 Side 2 forced transition at x/c =  1.0001   64

   3   rms: 0.3608E-01   max: -.2714E+00   D at   62  1
       a = 15.000      CL =  2.2187
      Cm = -0.1924     CD =  0.06584   =>   CDf =  0.00540    CDp =  0.06044

 Side 1  free  transition at x/c =  0.3182   62
 Side 2 forced transition at x/c =  1.0001   64

   4   rms: 0.7845E-02   max: 0.3084E-01   C at   62  1
       a = 15.000      CL =  2.2259
      Cm = -0.1929     CD =  0.06558   =>   CDf =  0.00524    CDp =  0.06034

 Side 1  free  transition at x/c =  0.3169   62
 Side 2 forced transition at x/c =  1.0001   64

   5   rms: 0.6155E-03   max: -.3653E-02   D at   78  2
       a = 15.000      CL =  2.2264
      Cm = -0.1930     CD =  0.06563   =>   CDf =  0.00528    CDp =  0.06036

 Side 1  free  transition at x/c =  0.3169   62
 Side 2 forced transition at x/c =  1.0001   64

   6   rms: 0.4312E-04   max: -.2477E-03   D at   78  2
       a = 15.000      CL =  2.2264
      Cm = -0.1930     CD =  0.06564   =>   CDf =  0.00528    CDp =  0.06036

 Point added to stored polar  1
 Point written to save file  000114M0.1.log                                  
 Dump file unspecified or not available

.OPERva   c>  
 XFOIL   c>  
