Job launching after 0.33 seconds in submission.
Running python job.
Changed into dir /home/simonx/Documents/Udacity/Projects/capstone/PESM_NSGA2_CST_XFoil
Importing evaluationFunctionXFoil.py
Running evaluationFunctionXFoil.main()
0
1
2
0.04
resp: 
 ===================================================
  XFOIL Version 6.97
  Copyright (C) 2000   Mark Drela, Harold Youngren

  This software comes with ABSOLUTELY NO WARRANTY,
    subject to the GNU General Public License.

  Caveat computor
 ===================================================

 File  xfoil.def  not found

   QUIT    Exit program

  .OPER    Direct operating point(s)
  .MDES    Complex mapping design routine
  .QDES    Surface speed design routine
  .GDES    Geometry design routine

   SAVE f  Write airfoil to labeled coordinate file
   PSAV f  Write airfoil to plain coordinate file
   ISAV f  Write airfoil to ISES coordinate file
   MSAV f  Write airfoil to MSES coordinate file
   REVE    Reverse written-airfoil node ordering
   DELI i  Change written-airfoil file delimiters

   LOAD f  Read buffer airfoil from coordinate file
   NACA i  Set NACA 4,5-digit airfoil and buffer airfoil
   INTE    Set buffer airfoil by interpolating two airfoils
   NORM    Buffer airfoil normalization toggle
   HALF    Halve the number of points in buffer airfoil
   XYCM rr Change CM reference location, currently  0.25000 0.00000

   BEND    Display structural properties of current airfoil

   PCOP    Set current-airfoil panel nodes directly from buffer airfoil points
   PANE    Set current-airfoil panel nodes ( 160 ) based on curvature
  .PPAR    Show/change paneling

  .PLOP    Plotting options

   WDEF f  Write  current-settings file
   RDEF f  Reread current-settings file
   NAME s  Specify new airfoil name
   NINC    Increment name version number

   Z       Zoom    | (available in all menus)
   U       Unzoom  | 

 XFOIL   c>   ...............................................

  G raphics-enable flag:        T
  S ize of plot object          10.00"
  A spect ratio of plot object   0.5500
  P age dimensions              11.00 x  8.50"
  M argins from page edges       0.00",  0.00"
  F ont size (relative)          0.0150
  W indow/screen size fraction   0.8000
  B lowup input method:        Cursor    
  O rientation of plot:        Landscape 
  C olor PostScript output?     F

      Option, Value   (or <Return>)    c>   ...............................................

  G raphics-enable flag:        F
  S ize of plot object          10.00"
  A spect ratio of plot object   0.5500
  P age dimensions              11.00 x  8.50"
  M argins from page edges       0.00",  0.00"
  F ont size (relative)          0.0150
  W indow/screen size fraction   0.8000
  B lowup input method:        Cursor    
  O rientation of plot:        Landscape 
  C olor PostScript output?     F

      Option, Value   (or <Return>)    c>  
 XFOIL   c>  
 Labeled airfoil file.  Name:  000158                                          

 Number of input coordinate points: 200
 Clockwise ordering
 Max thickness =     0.126138  at x =   0.136
 Max camber    =     0.098027  at x =   0.500

  LE  x,y  =  -0.00002   0.00128  |   Chord =   0.99990
  TE  x,y  =   0.99988   0.00006  |

 Current airfoil nodes set from buffer airfoil nodes ( 200 )

 XFOIL   c>  
 You are working with the buffer airfoil

.GDES   c>  
  i       x        y      angle
   2   0.9990   0.0005    0.014
   3   0.9978   0.0011    0.032
   4   0.9961   0.0019    0.070
   5   0.9938   0.0030    0.045
   6   0.9911   0.0044    0.112
   7   0.9880   0.0059    0.071
   8   0.9843   0.0077    0.115
   9   0.9801   0.0097    0.138
  10   0.9755   0.0119    0.155
  11   0.9704   0.0144    0.159
  12   0.9649   0.0170    0.187
  13   0.9589   0.0198    0.210
  14   0.9524   0.0229    0.245
  15   0.9455   0.0260    0.254
  16   0.9382   0.0294    0.281
  17   0.9304   0.0329    0.316
  18   0.9222   0.0365    0.345
  19   0.9135   0.0403    0.363
  20   0.9045   0.0442    0.400
  21   0.8951   0.0481    0.425
  22   0.8853   0.0522    0.460
  23   0.8751   0.0563    0.493
  24   0.8645   0.0604    0.519
  25   0.8536   0.0646    0.547
  26   0.8423   0.0688    0.587
  27   0.8307   0.0730    0.606
  28   0.8187   0.0771    0.637
  29   0.8065   0.0812    0.669
  30   0.7939   0.0853    0.691
  31   0.7810   0.0893    0.715
  32   0.7679   0.0931    0.733
  33   0.7545   0.0969    0.757
  34   0.7409   0.1005    0.775
  35   0.7270   0.1041    0.779
  36   0.7129   0.1074    0.803
  37   0.6986   0.1106    0.799
  38   0.6841   0.1137    0.805
  39   0.6694   0.1165    0.807
  40   0.6545   0.1192    0.805
  41   0.6395   0.1217    0.793
  42   0.6243   0.1240    0.788
  43   0.6091   0.1261    0.769
  44   0.5937   0.1280    0.754
  45   0.5782   0.1297    0.738
  46   0.5627   0.1312    0.710
  47   0.5471   0.1325    0.691
  48   0.5314   0.1336    0.659
  49   0.5157   0.1346    0.636
  50   0.5000   0.1354    0.604
  51   0.4843   0.1360    0.578
  52   0.4686   0.1364    0.549
  53   0.4529   0.1368    0.518
  54   0.4373   0.1369    0.499
  55   0.4218   0.1369    0.462
  56   0.4063   0.1368    0.453
  57   0.3909   0.1366    0.422
  58   0.3757   0.1363    0.414
  59   0.3605   0.1359    0.396
  60   0.3455   0.1353    0.390
  61   0.3306   0.1347    0.390
  62   0.3159   0.1340    0.393
  63   0.3014   0.1332    0.403
  64   0.2871   0.1323    0.418
  65   0.2730   0.1313    0.442
  66   0.2591   0.1302    0.474
  67   0.2455   0.1290    0.513
  68   0.2321   0.1277    0.558
  69   0.2190   0.1263    0.618
  70   0.2061   0.1248    0.682
  71   0.1935   0.1232    0.762
  72   0.1813   0.1215    0.838
  73   0.1693   0.1196    0.942
  74   0.1577   0.1176    1.042
  75   0.1464   0.1154    1.163
  76   0.1355   0.1131    1.288
  77   0.1249   0.1106    1.422
  78   0.1147   0.1079    1.577
  79   0.1049   0.1050    1.733
  80   0.0955   0.1019    1.899
  81   0.0865   0.0986    2.074
  82   0.0778   0.0951    2.265
  83   0.0696   0.0914    2.451
  84   0.0618   0.0875    2.644
  85   0.0545   0.0833    2.838
  86   0.0476   0.0790    3.047
  87   0.0411   0.0744    3.227
  88   0.0351   0.0696    3.416
  89   0.0296   0.0646    3.598
  90   0.0245   0.0594    3.753
  91   0.0199   0.0541    3.907
  92   0.0157   0.0485    4.051
  93   0.0120   0.0428    4.137
  94   0.0089   0.0370    4.264
  95   0.0062   0.0310    4.324
  96   0.0039   0.0249    4.383
  97   0.0022   0.0188    4.444
  98   0.0010   0.0126    4.460
  99   0.0002   0.0063    4.483
 100   0.0000   0.0000    8.160
 101   0.0002  -0.0024   11.490
 102   0.0010  -0.0047   10.619
 103   0.0022  -0.0071    9.525
 104   0.0039  -0.0093    8.268
 105   0.0062  -0.0115    7.181
 106   0.0089  -0.0135    6.209
 107   0.0120  -0.0154    5.381
 108   0.0157  -0.0171    4.719
 109   0.0199  -0.0187    4.154
 110   0.0245  -0.0201    3.679
 111   0.0296  -0.0212    3.285
 112   0.0351  -0.0222    2.946
 113   0.0411  -0.0229    2.668
 114   0.0476  -0.0233    2.390
 115   0.0545  -0.0235    2.175
 116   0.0618  -0.0234    1.975
 117   0.0696  -0.0231    1.780
 118   0.0778  -0.0225    1.609
 119   0.0865  -0.0216    1.454
 120   0.0955  -0.0204    1.305
 121   0.1049  -0.0189    1.170
 122   0.1147  -0.0172    1.036
 123   0.1249  -0.0152    0.913
 124   0.1355  -0.0130    0.795
 125   0.1464  -0.0106    0.680
 126   0.1577  -0.0079    0.567
 127   0.1693  -0.0050    0.467
 128   0.1813  -0.0020    0.358
 129   0.1935   0.0012    0.262
 130   0.2061   0.0046    0.160
 131   0.2190   0.0081    0.072
 132   0.2321   0.0116   -0.022
 133   0.2455   0.0153   -0.119
 134   0.2591   0.0189   -0.197
 135   0.2730   0.0226   -0.286
 136   0.2871   0.0263   -0.371
 137   0.3014   0.0299   -0.448
 138   0.3159   0.0335   -0.525
 139   0.3306   0.0369   -0.599
 140   0.3455   0.0403   -0.666
 141   0.3605   0.0435   -0.735
 142   0.3757   0.0465   -0.801
 143   0.3909   0.0493   -0.849
 144   0.4063   0.0519   -0.909
 145   0.4218   0.0542   -0.948
 146   0.4373   0.0563   -0.992
 147   0.4529   0.0582   -1.025
 148   0.4686   0.0598   -1.043
 149   0.4843   0.0610   -1.071
 150   0.5000   0.0620   -1.080
 151   0.5157   0.0627   -1.077
 152   0.5314   0.0631   -1.084
 153   0.5471   0.0632   -1.063
 154   0.5627   0.0630   -1.049
 155   0.5782   0.0625   -1.022
 156   0.5937   0.0618   -0.990
 157   0.6091   0.0608   -0.948
 158   0.6243   0.0595   -0.908
 159   0.6395   0.0580   -0.852
 160   0.6545   0.0563   -0.795
 161   0.6694   0.0544   -0.745
 162   0.6841   0.0524   -0.670
 163   0.6986   0.0501   -0.613
 164   0.7129   0.0478   -0.543
 165   0.7270   0.0454   -0.471
 166   0.7409   0.0428   -0.403
 167   0.7545   0.0403   -0.329
 168   0.7679   0.0376   -0.253
 169   0.7810   0.0350   -0.186
 170   0.7939   0.0324   -0.118
 171   0.8065   0.0298   -0.046
 172   0.8187   0.0273    0.020
 173   0.8307   0.0248    0.085
 174   0.8423   0.0225    0.150
 175   0.8536   0.0202    0.201
 176   0.8645   0.0180    0.266
 177   0.8751   0.0160    0.311
 178   0.8853   0.0141    0.354
 179   0.8951   0.0123    0.402
 180   0.9045   0.0107    0.437
 181   0.9135   0.0092    0.468
 182   0.9222   0.0078    0.487
 183   0.9304   0.0066    0.511
 184   0.9382   0.0055    0.526
 185   0.9455   0.0046    0.529
 186   0.9524   0.0037    0.532
 187   0.9589   0.0030    0.514
 188   0.9649   0.0024    0.521
 189   0.9704   0.0019    0.488
 190   0.9755   0.0014    0.459
 191   0.9801   0.0011    0.449
 192   0.9843   0.0008    0.390
 193   0.9880   0.0006    0.363
 194   0.9911   0.0004    0.339
 195   0.9938   0.0003    0.254
 196   0.9961   0.0002    0.229
 197   0.9978   0.0001    0.174
 198   0.9990   0.0000    0.095
 199   0.9998   0.0000    0.003

 Maximum panel corner angle = 11.490   at  i,x,y  = 101   0.0002  -0.0024

 Enter corner angle criterion for refinement (deg):   5.745
 Enter type of spline parameter (1=uniform, 2=arclength):   1
 Enter refinement x limits:  -0.10000   1.10000
 Number of points added:           14
 Max thickness =     0.126099  at x =   0.136
 Max camber    =     0.098718  at x =   0.500

 Maximum panel corner angle =  6.694   at  i,x,y  = 103   0.0001  -0.0018

.GDES   c>  
 Buffer airfoil is not identical to current airfoil

 XFOIL   c>  
 Blunt trailing edge.  Gap =  0.00028

 Paneling parameters used...
   Number of panel nodes       160
   Panel bunching parameter    1.000
   TE/LE panel density ratio   0.150
   Refined-area/LE panel density ratio    0.200
   Top    side refined area x/c limits  1.000 1.000
   Bottom side refined area x/c limits  1.000 1.000

 XFOIL   c>  
Enter output filename   s>  
 XFOIL   c>  
.OPERi   c>   Current iteration limit:          20

Enter new iteration limit   i>  
Enter new iteration limit   i>  
Enter new iteration limit   i>  
.OPERi   c>  
 M  =    0.0000
 Re =  0.3000E+06

.OPERv   c>  
 Sonic Cp =   -420.65      Sonic Q/Qinf =    22.825


.OPERv   c>  
 Polar  1 newly created for accumulation
 Airfoil archived with polar: 000158                                          

Enter  polar save filename  OR  <return> for no file   s>  
 New polar save file available

Enter  polar dump filename  OR  <return> for no file   s>  
 Polar dump file will NOT be written

 Polar accumulation enabled

.OPERva   c>   Calculating unit vorticity distributions ...
 Calculating wake trajectory ...
 Calculating source influence matrix ...

 Solving BL system ...

 Initializing BL ...
    side            1  ...
 MRCHUE: Inverse mode at  42     Hk =   4.528
 MRCHUE: Inverse mode at  43     Hk =   5.525
 MRCHUE: Inverse mode at  44     Hk =   6.528
 MRCHUE: Inverse mode at  45     Hk =   7.539
 MRCHUE: Inverse mode at  46     Hk =   8.557
 MRCHUE: Inverse mode at  47     Hk =   5.505
 MRCHUE: Inverse mode at  48     Hk =   2.500
 MRCHUE: Inverse mode at  80     Hk =   2.500
 MRCHUE: Inverse mode at  81     Hk =   2.500
 MRCHUE: Inverse mode at  82     Hk =   2.500
 MRCHUE: Inverse mode at  83     Hk =   2.500
 MRCHUE: Inverse mode at  84     Hk =   2.500
 MRCHUE: Convergence failed at  85  side 1    Res =  0.3847E+02
    side            2  ...
 MRCHUE: Inverse mode at  30     Hk =   4.140
 MRCHUE: Inverse mode at  31     Hk =   4.883
 MRCHUE: Inverse mode at  32     Hk =   5.650
 MRCHUE: Inverse mode at  33     Hk =   6.448
 MRCHUE: Inverse mode at  34     Hk =   7.278
 MRCHUE: Inverse mode at  35     Hk =   8.138
 MRCHUE: Inverse mode at  36     Hk =   9.022
 MRCHUE: Inverse mode at  37     Hk =   9.012
 MRCHUE: Inverse mode at  38     Hk =   5.106
 MRCHUE: Inverse mode at  39     Hk =   3.285
 MRCHUE: Convergence failed at  77  side 2    Res =  0.2700E+01
 MRCHUE: Convergence failed at  79  side 2    Res =  0.9617E-01

 MRCHDU: Convergence failed at  85  side 1    Res =  0.4297E+02
 MRCHDU: Convergence failed at  77  side 2    Res =  0.4153E+00
 MRCHDU: Convergence failed at  79  side 2    Res =  0.9610E-01
 Side 1  free  transition at x/c =  0.2792   47
 Side 2  free  transition at x/c =  0.2484   37

   1   rms: 0.1034E+01   max: 0.5403E+01   D at   79  2   RLX: 0.278
       a =  2.000      CL =  1.3805
      Cm = -0.2598     CD =  0.00346   =>   CDf =  0.00965    CDp = -0.00619

 Side 1  free  transition at x/c =  0.2901   47
 Side 2  free  transition at x/c =  0.2404   37

   2   rms: 0.5169E+00   max: 0.2439E+01   D at   80  2   RLX: 0.348
       a =  2.000      CL =  1.3184
      Cm = -0.2447     CD =  0.00688   =>   CDf =  0.00964    CDp = -0.00276

 Side 1  free  transition at x/c =  0.3096   48
 Side 2  free  transition at x/c =  0.2341   37

   3   rms: 0.3201E+00   max: -.1336E+01   T at   48  1   RLX: 0.374
       a =  2.000      CL =  1.2516
      Cm = -0.2287     CD =  0.00955   =>   CDf =  0.00960    CDp = -0.00005

 Side 1  free  transition at x/c =  0.3416   49
 Side 2  free  transition at x/c =  0.2302   37

   4   rms: 0.1769E+03   max: 0.3140E+04   D at    2  2   RLX: 0.000
       a =  2.000      CL =  1.2482
      Cm = -0.2284     CD =  0.00974   =>   CDf =  0.00901    CDp =  0.00073

 Side 1  free  transition at x/c =  0.3416   49
 Side 2  free  transition at x/c =  0.2302   37

   5   rms: 0.2658E+00   max: -.3914E+01   C at   49  1   RLX: 0.128
       a =  2.000      CL =  1.2343
      Cm = -0.2245     CD =  0.01008   =>   CDf =  0.00901    CDp =  0.00107

 Side 1  free  transition at x/c =  0.3520   49
 Side 2  free  transition at x/c =  0.2279   37

   6   rms: 0.2320E+00   max: -.1285E+01   T at   49  1   RLX: 0.389
       a =  2.000      CL =  1.1626
      Cm = -0.2088     CD =  0.01225   =>   CDf =  0.00896    CDp =  0.00329

 Side 1  free  transition at x/c =  0.6904   66
 Side 2  free  transition at x/c =  0.2166   37

   7   rms: 0.3085E+00   max: -.3937E+01   C at   66  1   RLX: 0.127
       a =  2.000      CL =  1.1854
      Cm = -0.2142     CD =  0.01060   =>   CDf =  0.00636    CDp =  0.00424

 Side 1  free  transition at x/c =  0.6989   67
 Side 2  free  transition at x/c =  0.2175   37

   8   rms: 0.1905E+00   max: -.1590E+01   C at   67  1   RLX: 0.314
       a =  2.000      CL =  1.2055
      Cm = -0.2169     CD =  0.01128   =>   CDf =  0.00636    CDp =  0.00492

 Side 1  free  transition at x/c =  0.7201   68
 Side 2  free  transition at x/c =  0.2189   37

   9   rms: 0.9252E-01   max: 0.5779E+00   D at   84  1
       a =  2.000      CL =  1.2227
      Cm = -0.2178     CD =  0.01344   =>   CDf =  0.00621    CDp =  0.00723

 Side 1  free  transition at x/c =  0.7476   69
 Side 2  free  transition at x/c =  0.2195   37

  10   rms: 0.5738E-01   max: 0.2849E+00   D at   82  2
       a =  2.000      CL =  1.1786
      Cm = -0.2088     CD =  0.01403   =>   CDf =  0.00608    CDp =  0.00795

 Side 1  free  transition at x/c =  0.7484   69
 Side 2  free  transition at x/c =  0.2155   37

  11   rms: 0.1859E-01   max: 0.1042E+00   D at   84  1
       a =  2.000      CL =  1.1621
      Cm = -0.2055     CD =  0.01433   =>   CDf =  0.00609    CDp =  0.00824

 Side 1  free  transition at x/c =  0.7487   69
 Side 2  free  transition at x/c =  0.2142   37

  12   rms: 0.1456E-02   max: 0.1035E-01   D at   37  2
       a =  2.000      CL =  1.1633
      Cm = -0.2057     CD =  0.01438   =>   CDf =  0.00611    CDp =  0.00826

 Side 1  free  transition at x/c =  0.7486   69
 Side 2  free  transition at x/c =  0.2141   37

  13   rms: 0.1104E-04   max: -.5686E-04   D at   83  1
       a =  2.000      CL =  1.1633
      Cm = -0.2057     CD =  0.01438   =>   CDf =  0.00611    CDp =  0.00826

 Point added to stored polar  1
 Point written to save file  000158M0.04.log                                 
 Dump file unspecified or not available
 Calculating wake trajectory ...
 Calculating source influence matrix ...

 Solving BL system ...

 Side 1  free  transition at x/c =  0.7486   69
 Side 2  free  transition at x/c =  0.2141   37

   1   rms: 0.1820E+00   max: 0.9714E+00   D at   79  1   RLX: 0.908
       a =  3.000      CL =  1.1149
      Cm = -0.1769     CD =  0.01732   =>   CDf =  0.00613    CDp =  0.01119

 Side 1  free  transition at x/c =  0.6820   66
 Side 2  free  transition at x/c =  0.2249   37

   2   rms: 0.1489E+00   max: -.6734E+00   D at   88  2   RLX: 0.742
       a =  3.000      CL =  1.1856
      Cm = -0.1859     CD =  0.01551   =>   CDf =  0.00609    CDp =  0.00942

 Side 1  free  transition at x/c =  0.6769   67
 Side 2  free  transition at x/c =  0.2322   37

   3   rms: 0.8525E-01   max: -.3951E+00   D at   86  2
       a =  3.000      CL =  1.2460
      Cm = -0.1980     CD =  0.01370   =>   CDf =  0.00625    CDp =  0.00745

 Side 1  free  transition at x/c =  0.6514   65
 Side 2  free  transition at x/c =  0.2393   37

   4   rms: 0.1306E-01   max: 0.9983E-01   T at   37  2
       a =  3.000      CL =  1.2374
      Cm = -0.1964     CD =  0.01438   =>   CDf =  0.00634    CDp =  0.00804

 Side 1  free  transition at x/c =  0.6536   65
 Side 2  free  transition at x/c =  0.2366   37

   5   rms: 0.2404E-02   max: -.2025E-01   D at   37  2
       a =  3.000      CL =  1.2370
      Cm = -0.1964     CD =  0.01439   =>   CDf =  0.00634    CDp =  0.00805

 Side 1  free  transition at x/c =  0.6537   65
 Side 2  free  transition at x/c =  0.2366   37

   6   rms: 0.1001E-04   max: -.6955E-04   D at   39  2
       a =  3.000      CL =  1.2370
      Cm = -0.1964     CD =  0.01439   =>   CDf =  0.00634    CDp =  0.00805

 Point added to stored polar  1
 Point written to save file  000158M0.04.log                                 
 Dump file unspecified or not available
 Calculating wake trajectory ...
 Calculating source influence matrix ...

 Solving BL system ...

 Side 1  free  transition at x/c =  0.6537   65
 Side 2  free  transition at x/c =  0.2366   37

   1   rms: 0.1868E+00   max: 0.2452E+01   C at   65  1   RLX: 0.558
       a =  4.000      CL =  1.2588
      Cm = -0.1878     CD =  0.01523   =>   CDf =  0.00635    CDp =  0.00887

 Side 1  free  transition at x/c =  0.4099   53
 Side 2  free  transition at x/c =  0.2465   37

   2   rms: 0.1059E+00   max: 0.9974E+00   C at   53  1
       a =  4.000      CL =  1.2129
      Cm = -0.1717     CD =  0.01973   =>   CDf =  0.00801    CDp =  0.01172

 Side 1  free  transition at x/c =  0.3614   51
 Side 2  free  transition at x/c =  0.2508   38

   3   rms: 0.1756E-01   max: -.1577E+00   C at   51  1
       a =  4.000      CL =  1.2063
      Cm = -0.1709     CD =  0.02030   =>   CDf =  0.00831    CDp =  0.01199

 Side 1  free  transition at x/c =  0.3661   51
 Side 2  free  transition at x/c =  0.2497   37

   4   rms: 0.3618E-02   max: -.6109E-01   D at   37  2
       a =  4.000      CL =  1.2065
      Cm = -0.1710     CD =  0.02022   =>   CDf =  0.00823    CDp =  0.01199

 Side 1  free  transition at x/c =  0.3656   51
 Side 2  free  transition at x/c =  0.2500   37

   5   rms: 0.2400E-03   max: 0.2608E-02   D at   38  2
       a =  4.000      CL =  1.2065
      Cm = -0.1710     CD =  0.02022   =>   CDf =  0.00823    CDp =  0.01199

 Side 1  free  transition at x/c =  0.3656   51
 Side 2  free  transition at x/c =  0.2499   37

   6   rms: 0.1521E-05   max: -.2033E-04   C at   51  1
       a =  4.000      CL =  1.2065
      Cm = -0.1710     CD =  0.02022   =>   CDf =  0.00823    CDp =  0.01199

 Point added to stored polar  1
 Point written to save file  000158M0.04.log                                 
 Dump file unspecified or not available
 Calculating wake trajectory ...
 Calculating source influence matrix ...

 Solving BL system ...

 Side 1  free  transition at x/c =  0.3656   51
 Side 2  free  transition at x/c =  0.2499   37

   1   rms: 0.2135E+00   max: 0.3389E+01   C at   51  1   RLX: 0.443
       a =  5.000      CL =  1.2208
      Cm = -0.1653     CD =  0.02219   =>   CDf =  0.00806    CDp =  0.01413

 Side 1  free  transition at x/c =  0.3242   50
 Side 2  free  transition at x/c =  0.2626   37

   2   rms: 0.1005E+00   max: 0.9164E+00   D at   37  2
       a =  5.000      CL =  1.2594
      Cm = -0.1616     CD =  0.02347   =>   CDf =  0.00845    CDp =  0.01502

 Side 1  free  transition at x/c =  0.2899   48
 Side 2  free  transition at x/c =  0.2711   38

   3   rms: 0.2337E-01   max: 0.2270E+00   D at   49  1
       a =  5.000      CL =  1.2543
      Cm = -0.1610     CD =  0.02369   =>   CDf =  0.00879    CDp =  0.01489

 Side 1  free  transition at x/c =  0.2906   48
 Side 2  free  transition at x/c =  0.2724   38

   4   rms: 0.8748E-02   max: -.1592E+00   C at   48  1
       a =  5.000      CL =  1.2545
      Cm = -0.1610     CD =  0.02366   =>   CDf =  0.00878    CDp =  0.01488

 Side 1  free  transition at x/c =  0.2915   48
 Side 2  free  transition at x/c =  0.2724   38

   5   rms: 0.9128E-03   max: 0.9854E-02   C at   48  1
       a =  5.000      CL =  1.2551
      Cm = -0.1611     CD =  0.02363   =>   CDf =  0.00872    CDp =  0.01492

 Side 1  free  transition at x/c =  0.2911   48
 Side 2  free  transition at x/c =  0.2724   38

   6   rms: 0.1509E-04   max: 0.8851E-04   T at   38  2
       a =  5.000      CL =  1.2550
      Cm = -0.1611     CD =  0.02363   =>   CDf =  0.00872    CDp =  0.01491

 Point added to stored polar  1
 Point written to save file  000158M0.04.log                                 
 Dump file unspecified or not available
 Calculating wake trajectory ...
 Calculating source influence matrix ...

 Solving BL system ...

 Side 1  free  transition at x/c =  0.2911   48
 Side 2  free  transition at x/c =  0.2724   38

   1   rms: 0.1597E+00   max: -.1185E+01   T at   38  2   RLX: 0.422
       a =  6.000      CL =  1.2902
      Cm = -0.1592     CD =  0.02422   =>   CDf =  0.00854    CDp =  0.01569

 Side 1  free  transition at x/c =  0.2714   48
 Side 2  free  transition at x/c =  0.2842   37

   2   rms: 0.9255E-01   max: -.5611E+00   T at   37  2   RLX: 0.891
       a =  6.000      CL =  1.3261
      Cm = -0.1559     CD =  0.02568   =>   CDf =  0.00884    CDp =  0.01684

 Side 1  free  transition at x/c =  0.2547   48
 Side 2  free  transition at x/c =  0.3027   38

   3   rms: 0.3745E-01   max: 0.4971E+00   D at   38  2
       a =  6.000      CL =  1.3208
      Cm = -0.1542     CD =  0.02632   =>   CDf =  0.00887    CDp =  0.01745

 Side 1  free  transition at x/c =  0.2546   48
 Side 2  free  transition at x/c =  0.2999   38

   4   rms: 0.5064E-02   max: 0.4782E-01   T at   38  2
       a =  6.000      CL =  1.3207
      Cm = -0.1541     CD =  0.02632   =>   CDf =  0.00885    CDp =  0.01747

 Side 1  free  transition at x/c =  0.2544   48
 Side 2  free  transition at x/c =  0.2984   38

   5   rms: 0.2938E-03   max: -.2658E-02   D at   38  2
       a =  6.000      CL =  1.3206
      Cm = -0.1541     CD =  0.02632   =>   CDf =  0.00886    CDp =  0.01746

 Side 1  free  transition at x/c =  0.2544   48
 Side 2  free  transition at x/c =  0.2984   38

   6   rms: 0.1696E-05   max: -.7342E-05   D at   86  2
       a =  6.000      CL =  1.3206
      Cm = -0.1541     CD =  0.02632   =>   CDf =  0.00886    CDp =  0.01746

 Point added to stored polar  1
 Point written to save file  000158M0.04.log                                 
 Dump file unspecified or not available
 Calculating wake trajectory ...
 Calculating source influence matrix ...

 Solving BL system ...

 Side 1  free  transition at x/c =  0.2544   48
 Side 2  free  transition at x/c =  0.2984   38

   1   rms: 0.1458E+00   max: -.8012E+00   T at   38  2   RLX: 0.624
       a =  7.000      CL =  1.3560
      Cm = -0.1492     CD =  0.02858   =>   CDf =  0.00866    CDp =  0.01993

 Side 1  free  transition at x/c =  0.2383   48
 Side 2  free  transition at x/c =  0.3127   38

   2   rms: 0.1204E+00   max: -.8767E+00   T at   38  2   RLX: 0.570
       a =  7.000      CL =  1.3720
      Cm = -0.1481     CD =  0.02880   =>   CDf =  0.00892    CDp =  0.01988

 Side 1  free  transition at x/c =  0.2351   48
 Side 2  free  transition at x/c =  0.3224   38

   3   rms: 0.5390E-01   max: -.3437E+00   D at   48  1
       a =  7.000      CL =  1.3869
      Cm = -0.1477     CD =  0.02910   =>   CDf =  0.00887    CDp =  0.02023

 Side 1  free  transition at x/c =  0.2307   47
 Side 2  free  transition at x/c =  0.3288   38

   4   rms: 0.1027E-01   max: -.1055E+00   D at   48  1
       a =  7.000      CL =  1.3892
      Cm = -0.1480     CD =  0.02893   =>   CDf =  0.00891    CDp =  0.02001

 Side 1  free  transition at x/c =  0.2297   47
 Side 2  free  transition at x/c =  0.3285   38

   5   rms: 0.1146E-02   max: -.7082E-02   D at   78  1
       a =  7.000      CL =  1.3899
      Cm = -0.1480     CD =  0.02891   =>   CDf =  0.00889    CDp =  0.02002

 Side 1  free  transition at x/c =  0.2295   47
 Side 2  free  transition at x/c =  0.3286   38

   6   rms: 0.1996E-04   max: 0.2493E-03   D at   39  2
       a =  7.000      CL =  1.3899
      Cm = -0.1480     CD =  0.02891   =>   CDf =  0.00890    CDp =  0.02002

 Point added to stored polar  1
 Point written to save file  000158M0.04.log                                 
 Dump file unspecified or not available
 Calculating wake trajectory ...
 Calculating source influence matrix ...

 Solving BL system ...

 Side 1  free  transition at x/c =  0.2295   47
 Side 2  free  transition at x/c =  0.3286   38

   1   rms: 0.1431E+00   max: -.1002E+01   T at   38  2   RLX: 0.499
       a =  8.000      CL =  1.4276
      Cm = -0.1455     CD =  0.03011   =>   CDf =  0.00868    CDp =  0.02143

 MRCHDU: Convergence failed at  39  side 2    Res =  0.3879E+01
 MRCHDU: Convergence failed at  40  side 2    Res =  0.4718E+01
 MRCHDU: Convergence failed at  41  side 2    Res =  0.1258E+02
 MRCHDU: Convergence failed at  42  side 2    Res =  0.3389E+02
 MRCHDU: Convergence failed at  43  side 2    Res =  0.1331E+03
 MRCHDU: Convergence failed at  44  side 2    Res =  0.2085E+03
 MRCHDU: Convergence failed at  45  side 2    Res =  0.1052E+03
 MRCHDU: Convergence failed at  46  side 2    Res =  0.8761E+02
 MRCHDU: Convergence failed at  47  side 2    Res =  0.8424E+02
 MRCHDU: Convergence failed at  48  side 2    Res =  0.9000E+02
 MRCHDU: Convergence failed at  49  side 2    Res =  0.1089E+03
 MRCHDU: Convergence failed at  50  side 2    Res =  0.1942E+03
 MRCHDU: Convergence failed at  51  side 2    Res =  0.1916E+03
 MRCHDU: Convergence failed at  52  side 2    Res =  0.5149E+02
 MRCHDU: Convergence failed at  53  side 2    Res =  0.2122E+02
 MRCHDU: Convergence failed at  54  side 2    Res =  0.9178E+01
 MRCHDU: Convergence failed at  55  side 2    Res =  0.4876E+01
 Side 1  free  transition at x/c =  0.2179   48
 Side 2  free  transition at x/c =  0.3515   39

   2   rms: 0.2139E+00   max: -.1037E+01   D at   54  2   RLX: 0.482
       a =  8.000      CL =  1.4240
      Cm = -0.1394     CD =  0.03063   =>   CDf =  0.00816    CDp =  0.02247

 Side 1  free  transition at x/c =  0.2140   47
 Side 2  free  transition at x/c =  0.3571   39

   3   rms: 0.5787E-01   max: -.5103E+00   D at   40  2   RLX: 0.980
       a =  8.000      CL =  1.4583
      Cm = -0.1423     CD =  0.03162   =>   CDf =  0.00905    CDp =  0.02256

 Side 1  free  transition at x/c =  0.2102   47
 Side 2  free  transition at x/c =  0.3623   39

   4   rms: 0.3594E-02   max: 0.6360E-01   D at   41  2
       a =  8.000      CL =  1.4592
      Cm = -0.1424     CD =  0.03158   =>   CDf =  0.00883    CDp =  0.02275

 Side 1  free  transition at x/c =  0.2099   47
 Side 2  free  transition at x/c =  0.3621   39

   5   rms: 0.1028E-03   max: -.2182E-02   D at   41  2
       a =  8.000      CL =  1.4592
      Cm = -0.1424     CD =  0.03158   =>   CDf =  0.00883    CDp =  0.02275

 Side 1  free  transition at x/c =  0.2099   47
 Side 2  free  transition at x/c =  0.3620   39

   6   rms: 0.1160E-05   max: 0.5646E-05   D at   85  2
       a =  8.000      CL =  1.4592
      Cm = -0.1424     CD =  0.03158   =>   CDf =  0.00883    CDp =  0.02275

 Point added to stored polar  1
 Point written to save file  000158M0.04.log                                 
 Dump file unspecified or not available
 Calculating wake trajectory ...
 Calculating source influence matrix ...

 Solving BL system ...

 Side 1  free  transition at x/c =  0.2099   47
 Side 2  free  transition at x/c =  0.3620   39

   1   rms: 0.1377E+00   max: -.8785E+00   T at   39  2   RLX: 0.569
       a =  9.000      CL =  1.5006
      Cm = -0.1395     CD =  0.03304   =>   CDf =  0.00860    CDp =  0.02444

 Side 1  free  transition at x/c =  0.1999   48
 Side 2  free  transition at x/c =  0.3868   39

   2   rms: 0.6584E-01   max: -.4231E+00   T at   39  2
       a =  9.000      CL =  1.5278
      Cm = -0.1366     CD =  0.03476   =>   CDf =  0.00894    CDp =  0.02583

 MRCHDU: Convergence failed at  41  side 2    Res =  0.3221E+01
 MRCHDU: Convergence failed at  42  side 2    Res =  0.4048E+01
 MRCHDU: Convergence failed at  43  side 2    Res =  0.1326E+02
 MRCHDU: Convergence failed at  44  side 2    Res =  0.1280E+04
 MRCHDU: Convergence failed at  45  side 2    Res =  0.3373E+02
 MRCHDU: Convergence failed at  46  side 2    Res =  0.2540E+02
 MRCHDU: Convergence failed at  47  side 2    Res =  0.3002E+02
 MRCHDU: Convergence failed at  48  side 2    Res =  0.8993E+02
 MRCHDU: Convergence failed at  49  side 2    Res =  0.4301E+02
 MRCHDU: Convergence failed at  50  side 2    Res =  0.1223E+02
 MRCHDU: Convergence failed at  51  side 2    Res =  0.5781E+01
 Side 1  free  transition at x/c =  0.1927   47
 Side 2  free  transition at x/c =  0.4079   41

   3   rms: 0.1514E+00   max: -.9721E+00   D at   50  2   RLX: 0.514
       a =  9.000      CL =  1.5168
      Cm = -0.1345     CD =  0.03454   =>   CDf =  0.00837    CDp =  0.02617

 Side 1  free  transition at x/c =  0.1936   47
 Side 2  free  transition at x/c =  0.4067   41

   4   rms: 0.3175E-01   max: -.3850E+00   D at   41  2
       a =  9.000      CL =  1.5241
      Cm = -0.1365     CD =  0.03460   =>   CDf =  0.00884    CDp =  0.02576

 Side 1  free  transition at x/c =  0.1943   47
 Side 2  free  transition at x/c =  0.4036   40

   5   rms: 0.4693E-02   max: 0.6745E-01   D at   41  2
       a =  9.000      CL =  1.5265
      Cm = -0.1368     CD =  0.03448   =>   CDf =  0.00875    CDp =  0.02573

 Side 1  free  transition at x/c =  0.1940   47
 Side 2  free  transition at x/c =  0.4033   40

   6   rms: 0.3276E-03   max: 0.5194E-02   D at   41  2
       a =  9.000      CL =  1.5265
      Cm = -0.1368     CD =  0.03449   =>   CDf =  0.00875    CDp =  0.02574

 Side 1  free  transition at x/c =  0.1940   47
 Side 2  free  transition at x/c =  0.4032   40

   7   rms: 0.2428E-05   max: 0.1593E-04   C at   72  2
       a =  9.000      CL =  1.5265
      Cm = -0.1368     CD =  0.03449   =>   CDf =  0.00875    CDp =  0.02574

 Point added to stored polar  1
 Point written to save file  000158M0.04.log                                 
 Dump file unspecified or not available
 Calculating wake trajectory ...
 Calculating source influence matrix ...

 Solving BL system ...

 Side 1  free  transition at x/c =  0.1940   47
 Side 2  free  transition at x/c =  0.4032   40

   1   rms: 0.1388E+00   max: -.9437E+00   T at   40  2   RLX: 0.530
       a = 10.000      CL =  1.5638
      Cm = -0.1342     CD =  0.03603   =>   CDf =  0.00850    CDp =  0.02753

 MRCHDU: Convergence failed at  41  side 2    Res =  0.7754E+01
 MRCHDU: Convergence failed at  42  side 2    Res =  0.3508E+01
 MRCHDU: Convergence failed at  43  side 2    Res =  0.5013E+01
 MRCHDU: Convergence failed at  44  side 2    Res =  0.1584E+02
 MRCHDU: Convergence failed at  45  side 2    Res =  0.1226E+03
 MRCHDU: Convergence failed at  46  side 2    Res =  0.6480E+02
 MRCHDU: Convergence failed at  47  side 2    Res =  0.3107E+02
 MRCHDU: Convergence failed at  48  side 2    Res =  0.1287E+02
 Side 1  free  transition at x/c =  0.1863   48
 Side 2  free  transition at x/c =  0.4346   41

   2   rms: 0.1260E+00   max: -.8787E+00   D at   48  2   RLX: 0.569
       a = 10.000      CL =  1.5767
      Cm = -0.1316     CD =  0.03690   =>   CDf =  0.00842    CDp =  0.02848

 Side 1  free  transition at x/c =  0.1832   47
 Side 2  free  transition at x/c =  0.4528   42

   3   rms: 0.4015E-01   max: -.4761E+00   D at   43  2
       a = 10.000      CL =  1.5931
      Cm = -0.1315     CD =  0.03757   =>   CDf =  0.00877    CDp =  0.02880

 Side 1  free  transition at x/c =  0.1808   47
 Side 2  free  transition at x/c =  0.4617   42

   4   rms: 0.8912E-02   max: -.1341E+00   C at   42  2
       a = 10.000      CL =  1.5931
      Cm = -0.1315     CD =  0.03755   =>   CDf =  0.00865    CDp =  0.02891

 Side 1  free  transition at x/c =  0.1807   47
 Side 2  free  transition at x/c =  0.4613   42

   5   rms: 0.9477E-02   max: -.1334E+00   C at   42  2
       a = 10.000      CL =  1.5932
      Cm = -0.1315     CD =  0.03756   =>   CDf =  0.00864    CDp =  0.02891

 Side 1  free  transition at x/c =  0.1807   47
 Side 2  free  transition at x/c =  0.4613   42

   6   rms: 0.9478E-02   max: -.1335E+00   C at   42  2
       a = 10.000      CL =  1.5932
      Cm = -0.1315     CD =  0.03756   =>   CDf =  0.00864    CDp =  0.02891

 Side 1  free  transition at x/c =  0.1807   47
 Side 2  free  transition at x/c =  0.4613   42

   7   rms: 0.9478E-02   max: -.1335E+00   C at   42  2
       a = 10.000      CL =  1.5932
      Cm = -0.1315     CD =  0.03756   =>   CDf =  0.00864    CDp =  0.02891

 Side 1  free  transition at x/c =  0.1807   47
 Side 2  free  transition at x/c =  0.4613   42

   8   rms: 0.9479E-02   max: -.1335E+00   C at   42  2
       a = 10.000      CL =  1.5932
      Cm = -0.1315     CD =  0.03756   =>   CDf =  0.00864    CDp =  0.02891

 Side 1  free  transition at x/c =  0.1807   47
 Side 2  free  transition at x/c =  0.4613   42

   9   rms: 0.9479E-02   max: -.1335E+00   C at   42  2
       a = 10.000      CL =  1.5932
      Cm = -0.1315     CD =  0.03756   =>   CDf =  0.00864    CDp =  0.02891

 Side 1  free  transition at x/c =  0.1807   47
 Side 2  free  transition at x/c =  0.4613   42

  10   rms: 0.9478E-02   max: -.1335E+00   C at   42  2
       a = 10.000      CL =  1.5932
      Cm = -0.1315     CD =  0.03756   =>   CDf =  0.00864    CDp =  0.02891

 Side 1  free  transition at x/c =  0.1807   47
 Side 2  free  transition at x/c =  0.4613   42

  11   rms: 0.9478E-02   max: -.1335E+00   C at   42  2
       a = 10.000      CL =  1.5932
      Cm = -0.1315     CD =  0.03756   =>   CDf =  0.00864    CDp =  0.02891

 Side 1  free  transition at x/c =  0.1807   47
 Side 2  free  transition at x/c =  0.4613   42

  12   rms: 0.9478E-02   max: -.1335E+00   C at   42  2
       a = 10.000      CL =  1.5932
      Cm = -0.1315     CD =  0.03756   =>   CDf =  0.00864    CDp =  0.02891

 Side 1  free  transition at x/c =  0.1807   47
 Side 2  free  transition at x/c =  0.4613   42

  13   rms: 0.9478E-02   max: -.1335E+00   C at   42  2
       a = 10.000      CL =  1.5932
      Cm = -0.1315     CD =  0.03756   =>   CDf =  0.00864    CDp =  0.02891

 Side 1  free  transition at x/c =  0.1807   47
 Side 2  free  transition at x/c =  0.4613   42

  14   rms: 0.9478E-02   max: -.1335E+00   C at   42  2
       a = 10.000      CL =  1.5932
      Cm = -0.1315     CD =  0.03756   =>   CDf =  0.00864    CDp =  0.02891

 Side 1  free  transition at x/c =  0.1807   47
 Side 2  free  transition at x/c =  0.4613   42

  15   rms: 0.9478E-02   max: -.1335E+00   C at   42  2
       a = 10.000      CL =  1.5932
      Cm = -0.1315     CD =  0.03756   =>   CDf =  0.00864    CDp =  0.02891

 Side 1  free  transition at x/c =  0.1807   47
 Side 2  free  transition at x/c =  0.4613   42

  16   rms: 0.9478E-02   max: -.1335E+00   C at   42  2
       a = 10.000      CL =  1.5932
      Cm = -0.1315     CD =  0.03756   =>   CDf =  0.00864    CDp =  0.02891

 Side 1  free  transition at x/c =  0.1807   47
 Side 2  free  transition at x/c =  0.4613   42

  17   rms: 0.9478E-02   max: -.1335E+00   C at   42  2
       a = 10.000      CL =  1.5932
      Cm = -0.1315     CD =  0.03756   =>   CDf =  0.00864    CDp =  0.02891

 Side 1  free  transition at x/c =  0.1807   47
 Side 2  free  transition at x/c =  0.4613   42

  18   rms: 0.9478E-02   max: -.1335E+00   C at   42  2
       a = 10.000      CL =  1.5932
      Cm = -0.1315     CD =  0.03756   =>   CDf =  0.00864    CDp =  0.02891

 Side 1  free  transition at x/c =  0.1807   47
 Side 2  free  transition at x/c =  0.4613   42

  19   rms: 0.9478E-02   max: -.1335E+00   C at   42  2
       a = 10.000      CL =  1.5932
      Cm = -0.1315     CD =  0.03756   =>   CDf =  0.00864    CDp =  0.02891

 Side 1  free  transition at x/c =  0.1807   47
 Side 2  free  transition at x/c =  0.4613   42

  20   rms: 0.9478E-02   max: -.1335E+00   C at   42  2
       a = 10.000      CL =  1.5932
      Cm = -0.1315     CD =  0.03756   =>   CDf =  0.00864    CDp =  0.02891

 Side 1  free  transition at x/c =  0.1807   47
 Side 2  free  transition at x/c =  0.4613   42

  21   rms: 0.9478E-02   max: -.1335E+00   C at   42  2
       a = 10.000      CL =  1.5932
      Cm = -0.1315     CD =  0.03756   =>   CDf =  0.00864    CDp =  0.02891

 Side 1  free  transition at x/c =  0.1807   47
 Side 2  free  transition at x/c =  0.4613   42

  22   rms: 0.9478E-02   max: -.1335E+00   C at   42  2
       a = 10.000      CL =  1.5932
      Cm = -0.1315     CD =  0.03756   =>   CDf =  0.00864    CDp =  0.02891

 Side 1  free  transition at x/c =  0.1807   47
 Side 2  free  transition at x/c =  0.4613   42

  23   rms: 0.9478E-02   max: -.1335E+00   C at   42  2
       a = 10.000      CL =  1.5932
      Cm = -0.1315     CD =  0.03756   =>   CDf =  0.00864    CDp =  0.02891

 Side 1  free  transition at x/c =  0.1807   47
 Side 2  free  transition at x/c =  0.4613   42

  24   rms: 0.9478E-02   max: -.1335E+00   C at   42  2
       a = 10.000      CL =  1.5932
      Cm = -0.1315     CD =  0.03756   =>   CDf =  0.00864    CDp =  0.02891

 Side 1  free  transition at x/c =  0.1807   47
 Side 2  free  transition at x/c =  0.4613   42

  25   rms: 0.9478E-02   max: -.1335E+00   C at   42  2
       a = 10.000      CL =  1.5932
      Cm = -0.1315     CD =  0.03756   =>   CDf =  0.00864    CDp =  0.02891
 VISCAL:  Convergence failed
 Calculating wake trajectory ...
 Calculating source influence matrix ...

 Solving BL system ...

 Side 1  free  transition at x/c =  0.1807   47
 Side 2  free  transition at x/c =  0.4613   42

   1   rms: 0.1505E+00   max: -.1145E+01   T at   42  2   RLX: 0.437
       a = 11.000      CL =  1.6220
      Cm = -0.1293     CD =  0.03902   =>   CDf =  0.00837    CDp =  0.03066

 MRCHDU: Convergence failed at  44  side 2    Res =  0.7510E+01
 Side 1  free  transition at x/c =  0.1750   48
 Side 2  free  transition at x/c =  0.5113   44

   2   rms: 0.8977E-01   max: -.5205E+00   T at   44  2   RLX: 0.961
       a = 11.000      CL =  1.6559
      Cm = -0.1266     CD =  0.04080   =>   CDf =  0.00848    CDp =  0.03232

 Side 1  free  transition at x/c =  0.1695   48
 Side 2 forced transition at x/c =  1.0001   70

   3   rms: 0.3706E-01   max: 0.6143E+00   D at   44  2
       a = 11.000      CL =  1.6565
      Cm = -0.1262     CD =  0.04037   =>   CDf =  0.00810    CDp =  0.03228

 Side 1  free  transition at x/c =  0.1687   48
 Side 2 forced transition at x/c =  1.0001   70

   4   rms: 0.7318E-02   max: 0.6200E-01   D at   43  2
       a = 11.000      CL =  1.6570
      Cm = -0.1263     CD =  0.04036   =>   CDf =  0.00812    CDp =  0.03223

 Side 1  free  transition at x/c =  0.1686   48
 Side 2 forced transition at x/c =  1.0001   70

   5   rms: 0.4900E-03   max: 0.3872E-02   D at   43  2
       a = 11.000      CL =  1.6570
      Cm = -0.1263     CD =  0.04036   =>   CDf =  0.00812    CDp =  0.03224

 Side 1  free  transition at x/c =  0.1686   48
 Side 2 forced transition at x/c =  1.0001   70

   6   rms: 0.2797E-05   max: 0.2112E-04   D at   42  2
       a = 11.000      CL =  1.6570
      Cm = -0.1263     CD =  0.04036   =>   CDf =  0.00812    CDp =  0.03224

 Point added to stored polar  1
 Point written to save file  000158M0.04.log                                 
 Dump file unspecified or not available
 Calculating wake trajectory ...
 Calculating source influence matrix ...

 Solving BL system ...

 Side 1  free  transition at x/c =  0.1686   48
 Side 2 forced transition at x/c =  1.0001   70

   1   rms: 0.1968E+00   max: 0.5722E+00   T at   48  1   RLX: 0.592
       a = 12.000      CL =  1.7147
      Cm = -0.1246     CD =  0.04159   =>   CDf =  0.00785    CDp =  0.03374

 Side 1  free  transition at x/c =  0.1595   48
 Side 2 forced transition at x/c =  1.0001   69

   2   rms: 0.6361E-01   max: -.5059E+00   D at   48  1   RLX: 0.988
       a = 12.000      CL =  1.7008
      Cm = -0.1189     CD =  0.04444   =>   CDf =  0.00813    CDp =  0.03631

 Side 1  free  transition at x/c =  0.1597   48
 Side 2 forced transition at x/c =  1.0001   69

   3   rms: 0.1366E-01   max: 0.7039E-01   D at   80  1
       a = 12.000      CL =  1.7132
      Cm = -0.1207     CD =  0.04421   =>   CDf =  0.00792    CDp =  0.03629

 Side 1  free  transition at x/c =  0.1590   48
 Side 2 forced transition at x/c =  1.0001   69

   4   rms: 0.4326E-03   max: -.3569E-02   D at   81  2
       a = 12.000      CL =  1.7135
      Cm = -0.1207     CD =  0.04425   =>   CDf =  0.00794    CDp =  0.03630

 Side 1  free  transition at x/c =  0.1590   48
 Side 2 forced transition at x/c =  1.0001   69

   5   rms: 0.1539E-04   max: -.9600E-04   D at   81  2
       a = 12.000      CL =  1.7135
      Cm = -0.1207     CD =  0.04425   =>   CDf =  0.00795    CDp =  0.03630

 Point added to stored polar  1
 Point written to save file  000158M0.04.log                                 
 Dump file unspecified or not available
 Calculating wake trajectory ...
 Calculating source influence matrix ...

 Solving BL system ...

 Side 1  free  transition at x/c =  0.1590   48
 Side 2 forced transition at x/c =  1.0001   69

   1   rms: 0.1254E+00   max: 0.4471E+00   T at   48  1   RLX: 0.530
       a = 13.000      CL =  1.7431
      Cm = -0.1180     CD =  0.04652   =>   CDf =  0.00765    CDp =  0.03887

 Side 1  free  transition at x/c =  0.1547   49
 Side 2 forced transition at x/c =  1.0001   68

   2   rms: 0.9511E-01   max: 0.3581E+00   T at   49  1
       a = 13.000      CL =  1.8042
      Cm = -0.1175     CD =  0.04613   =>   CDf =  0.00769    CDp =  0.03844

 Side 1  free  transition at x/c =  0.1467   49
 Side 2 forced transition at x/c =  1.0001   67

   3   rms: 0.6632E-01   max: -.4470E+00   D at   49  1
       a = 13.000      CL =  1.7582
      Cm = -0.1139     CD =  0.04864   =>   CDf =  0.00827    CDp =  0.04037

 Side 1  free  transition at x/c =  0.1505   48
 Side 2 forced transition at x/c =  1.0001   68

   4   rms: 0.1223E-01   max: -.6647E-01   D at   82  1
       a = 13.000      CL =  1.7679
      Cm = -0.1153     CD =  0.04840   =>   CDf =  0.00782    CDp =  0.04058

 Side 1  free  transition at x/c =  0.1502   48
 Side 2 forced transition at x/c =  1.0001   68

   5   rms: 0.1024E-02   max: 0.9027E-02   D at    4  2
       a = 13.000      CL =  1.7685
      Cm = -0.1153     CD =  0.04843   =>   CDf =  0.00783    CDp =  0.04060

 Side 1  free  transition at x/c =  0.1502   48
 Side 2 forced transition at x/c =  1.0001   68

   6   rms: 0.2379E-04   max: -.1841E-03   D at   81  2
       a = 13.000      CL =  1.7685
      Cm = -0.1154     CD =  0.04843   =>   CDf =  0.00783    CDp =  0.04060

 Point added to stored polar  1
 Point written to save file  000158M0.04.log                                 
 Dump file unspecified or not available
 Calculating wake trajectory ...
 Calculating source influence matrix ...

 Solving BL system ...

 Side 1  free  transition at x/c =  0.1502   48
 Side 2 forced transition at x/c =  1.0001   68

   1   rms: 0.1161E+00   max: 0.3963E+00   T at   48  1   RLX: 0.495
       a = 14.000      CL =  1.7924
      Cm = -0.1128     CD =  0.05092   =>   CDf =  0.00751    CDp =  0.04341

 Side 1  free  transition at x/c =  0.1444   49
 Side 2 forced transition at x/c =  1.0001   67

   2   rms: 0.5761E-01   max: -.3409E+00   D at   49  1
       a = 14.000      CL =  1.8111
      Cm = -0.1099     CD =  0.05359   =>   CDf =  0.00782    CDp =  0.04577

 Side 1  free  transition at x/c =  0.1411   48
 Side 2 forced transition at x/c =  1.0001   67

   3   rms: 0.6668E-02   max: -.5707E-01   C at   48  1
       a = 14.000      CL =  1.8108
      Cm = -0.1098     CD =  0.05360   =>   CDf =  0.00778    CDp =  0.04582

 Side 1  free  transition at x/c =  0.1405   48
 Side 2 forced transition at x/c =  1.0001   67

   4   rms: 0.1064E-02   max: -.5161E-02   D at   80  1
       a = 14.000      CL =  1.8116
      Cm = -0.1099     CD =  0.05357   =>   CDf =  0.00774    CDp =  0.04583

 Side 1  free  transition at x/c =  0.1404   48
 Side 2 forced transition at x/c =  1.0001   67

   5   rms: 0.3204E-04   max: -.3327E-03   D at   81  2
       a = 14.000      CL =  1.8116
      Cm = -0.1099     CD =  0.05358   =>   CDf =  0.00774    CDp =  0.04584

 Point added to stored polar  1
 Point written to save file  000158M0.04.log                                 
 Dump file unspecified or not available
 Calculating wake trajectory ...
 Calculating source influence matrix ...

 Solving BL system ...

 Side 1  free  transition at x/c =  0.1404   48
 Side 2 forced transition at x/c =  1.0001   67

   1   rms: 0.1122E+00   max: 0.4740E+00   T at   48  1   RLX: 0.456
       a = 15.000      CL =  1.8261
      Cm = -0.1075     CD =  0.05674   =>   CDf =  0.00739    CDp =  0.04935

 Side 1  free  transition at x/c =  0.1359   49
 Side 2 forced transition at x/c =  1.0001   66

   2   rms: 0.5993E-01   max: 0.2135E+00   T at   49  1
       a = 15.000      CL =  1.8450
      Cm = -0.1049     CD =  0.06018   =>   CDf =  0.00758    CDp =  0.05260

 Side 1  free  transition at x/c =  0.1315   49
 Side 2 forced transition at x/c =  1.0001   66

   3   rms: 0.6465E-02   max: -.5982E-01   D at   49  1
       a = 15.000      CL =  1.8444
      Cm = -0.1048     CD =  0.05982   =>   CDf =  0.00752    CDp =  0.05229

 Side 1  free  transition at x/c =  0.1316   49
 Side 2 forced transition at x/c =  1.0001   66

   4   rms: 0.1011E-02   max: -.4565E-02   D at   80  2
       a = 15.000      CL =  1.8453
      Cm = -0.1048     CD =  0.05981   =>   CDf =  0.00752    CDp =  0.05229

 Side 1  free  transition at x/c =  0.1316   49
 Side 2 forced transition at x/c =  1.0001   66

   5   rms: 0.3413E-04   max: -.3432E-03   D at   80  2
       a = 15.000      CL =  1.8453
      Cm = -0.1049     CD =  0.05982   =>   CDf =  0.00753    CDp =  0.05229

 Point added to stored polar  1
 Point written to save file  000158M0.04.log                                 
 Dump file unspecified or not available

.OPERva   c>  
 XFOIL   c>  
0.1
resp: 
 ===================================================
  XFOIL Version 6.97
  Copyright (C) 2000   Mark Drela, Harold Youngren

  This software comes with ABSOLUTELY NO WARRANTY,
    subject to the GNU General Public License.

  Caveat computor
 ===================================================

 File  xfoil.def  not found

   QUIT    Exit program

  .OPER    Direct operating point(s)
  .MDES    Complex mapping design routine
  .QDES    Surface speed design routine
  .GDES    Geometry design routine

   SAVE f  Write airfoil to labeled coordinate file
   PSAV f  Write airfoil to plain coordinate file
   ISAV f  Write airfoil to ISES coordinate file
   MSAV f  Write airfoil to MSES coordinate file
   REVE    Reverse written-airfoil node ordering
   DELI i  Change written-airfoil file delimiters

   LOAD f  Read buffer airfoil from coordinate file
   NACA i  Set NACA 4,5-digit airfoil and buffer airfoil
   INTE    Set buffer airfoil by interpolating two airfoils
   NORM    Buffer airfoil normalization toggle
   HALF    Halve the number of points in buffer airfoil
   XYCM rr Change CM reference location, currently  0.25000 0.00000

   BEND    Display structural properties of current airfoil

   PCOP    Set current-airfoil panel nodes directly from buffer airfoil points
   PANE    Set current-airfoil panel nodes ( 160 ) based on curvature
  .PPAR    Show/change paneling

  .PLOP    Plotting options

   WDEF f  Write  current-settings file
   RDEF f  Reread current-settings file
   NAME s  Specify new airfoil name
   NINC    Increment name version number

   Z       Zoom    | (available in all menus)
   U       Unzoom  | 

 XFOIL   c>   ...............................................

  G raphics-enable flag:        T
  S ize of plot object          10.00"
  A spect ratio of plot object   0.5500
  P age dimensions              11.00 x  8.50"
  M argins from page edges       0.00",  0.00"
  F ont size (relative)          0.0150
  W indow/screen size fraction   0.8000
  B lowup input method:        Cursor    
  O rientation of plot:        Landscape 
  C olor PostScript output?     F

      Option, Value   (or <Return>)    c>   ...............................................

  G raphics-enable flag:        F
  S ize of plot object          10.00"
  A spect ratio of plot object   0.5500
  P age dimensions              11.00 x  8.50"
  M argins from page edges       0.00",  0.00"
  F ont size (relative)          0.0150
  W indow/screen size fraction   0.8000
  B lowup input method:        Cursor    
  O rientation of plot:        Landscape 
  C olor PostScript output?     F

      Option, Value   (or <Return>)    c>  
 XFOIL   c>  
 Labeled airfoil file.  Name:  000158                                          

 Number of input coordinate points: 200
 Clockwise ordering
 Max thickness =     0.126138  at x =   0.136
 Max camber    =     0.098027  at x =   0.500

  LE  x,y  =  -0.00002   0.00128  |   Chord =   0.99990
  TE  x,y  =   0.99988   0.00006  |

 Current airfoil nodes set from buffer airfoil nodes ( 200 )

 XFOIL   c>  
 You are working with the buffer airfoil

.GDES   c>  
  i       x        y      angle
   2   0.9990   0.0005    0.014
   3   0.9978   0.0011    0.032
   4   0.9961   0.0019    0.070
   5   0.9938   0.0030    0.045
   6   0.9911   0.0044    0.112
   7   0.9880   0.0059    0.071
   8   0.9843   0.0077    0.115
   9   0.9801   0.0097    0.138
  10   0.9755   0.0119    0.155
  11   0.9704   0.0144    0.159
  12   0.9649   0.0170    0.187
  13   0.9589   0.0198    0.210
  14   0.9524   0.0229    0.245
  15   0.9455   0.0260    0.254
  16   0.9382   0.0294    0.281
  17   0.9304   0.0329    0.316
  18   0.9222   0.0365    0.345
  19   0.9135   0.0403    0.363
  20   0.9045   0.0442    0.400
  21   0.8951   0.0481    0.425
  22   0.8853   0.0522    0.460
  23   0.8751   0.0563    0.493
  24   0.8645   0.0604    0.519
  25   0.8536   0.0646    0.547
  26   0.8423   0.0688    0.587
  27   0.8307   0.0730    0.606
  28   0.8187   0.0771    0.637
  29   0.8065   0.0812    0.669
  30   0.7939   0.0853    0.691
  31   0.7810   0.0893    0.715
  32   0.7679   0.0931    0.733
  33   0.7545   0.0969    0.757
  34   0.7409   0.1005    0.775
  35   0.7270   0.1041    0.779
  36   0.7129   0.1074    0.803
  37   0.6986   0.1106    0.799
  38   0.6841   0.1137    0.805
  39   0.6694   0.1165    0.807
  40   0.6545   0.1192    0.805
  41   0.6395   0.1217    0.793
  42   0.6243   0.1240    0.788
  43   0.6091   0.1261    0.769
  44   0.5937   0.1280    0.754
  45   0.5782   0.1297    0.738
  46   0.5627   0.1312    0.710
  47   0.5471   0.1325    0.691
  48   0.5314   0.1336    0.659
  49   0.5157   0.1346    0.636
  50   0.5000   0.1354    0.604
  51   0.4843   0.1360    0.578
  52   0.4686   0.1364    0.549
  53   0.4529   0.1368    0.518
  54   0.4373   0.1369    0.499
  55   0.4218   0.1369    0.462
  56   0.4063   0.1368    0.453
  57   0.3909   0.1366    0.422
  58   0.3757   0.1363    0.414
  59   0.3605   0.1359    0.396
  60   0.3455   0.1353    0.390
  61   0.3306   0.1347    0.390
  62   0.3159   0.1340    0.393
  63   0.3014   0.1332    0.403
  64   0.2871   0.1323    0.418
  65   0.2730   0.1313    0.442
  66   0.2591   0.1302    0.474
  67   0.2455   0.1290    0.513
  68   0.2321   0.1277    0.558
  69   0.2190   0.1263    0.618
  70   0.2061   0.1248    0.682
  71   0.1935   0.1232    0.762
  72   0.1813   0.1215    0.838
  73   0.1693   0.1196    0.942
  74   0.1577   0.1176    1.042
  75   0.1464   0.1154    1.163
  76   0.1355   0.1131    1.288
  77   0.1249   0.1106    1.422
  78   0.1147   0.1079    1.577
  79   0.1049   0.1050    1.733
  80   0.0955   0.1019    1.899
  81   0.0865   0.0986    2.074
  82   0.0778   0.0951    2.265
  83   0.0696   0.0914    2.451
  84   0.0618   0.0875    2.644
  85   0.0545   0.0833    2.838
  86   0.0476   0.0790    3.047
  87   0.0411   0.0744    3.227
  88   0.0351   0.0696    3.416
  89   0.0296   0.0646    3.598
  90   0.0245   0.0594    3.753
  91   0.0199   0.0541    3.907
  92   0.0157   0.0485    4.051
  93   0.0120   0.0428    4.137
  94   0.0089   0.0370    4.264
  95   0.0062   0.0310    4.324
  96   0.0039   0.0249    4.383
  97   0.0022   0.0188    4.444
  98   0.0010   0.0126    4.460
  99   0.0002   0.0063    4.483
 100   0.0000   0.0000    8.160
 101   0.0002  -0.0024   11.490
 102   0.0010  -0.0047   10.619
 103   0.0022  -0.0071    9.525
 104   0.0039  -0.0093    8.268
 105   0.0062  -0.0115    7.181
 106   0.0089  -0.0135    6.209
 107   0.0120  -0.0154    5.381
 108   0.0157  -0.0171    4.719
 109   0.0199  -0.0187    4.154
 110   0.0245  -0.0201    3.679
 111   0.0296  -0.0212    3.285
 112   0.0351  -0.0222    2.946
 113   0.0411  -0.0229    2.668
 114   0.0476  -0.0233    2.390
 115   0.0545  -0.0235    2.175
 116   0.0618  -0.0234    1.975
 117   0.0696  -0.0231    1.780
 118   0.0778  -0.0225    1.609
 119   0.0865  -0.0216    1.454
 120   0.0955  -0.0204    1.305
 121   0.1049  -0.0189    1.170
 122   0.1147  -0.0172    1.036
 123   0.1249  -0.0152    0.913
 124   0.1355  -0.0130    0.795
 125   0.1464  -0.0106    0.680
 126   0.1577  -0.0079    0.567
 127   0.1693  -0.0050    0.467
 128   0.1813  -0.0020    0.358
 129   0.1935   0.0012    0.262
 130   0.2061   0.0046    0.160
 131   0.2190   0.0081    0.072
 132   0.2321   0.0116   -0.022
 133   0.2455   0.0153   -0.119
 134   0.2591   0.0189   -0.197
 135   0.2730   0.0226   -0.286
 136   0.2871   0.0263   -0.371
 137   0.3014   0.0299   -0.448
 138   0.3159   0.0335   -0.525
 139   0.3306   0.0369   -0.599
 140   0.3455   0.0403   -0.666
 141   0.3605   0.0435   -0.735
 142   0.3757   0.0465   -0.801
 143   0.3909   0.0493   -0.849
 144   0.4063   0.0519   -0.909
 145   0.4218   0.0542   -0.948
 146   0.4373   0.0563   -0.992
 147   0.4529   0.0582   -1.025
 148   0.4686   0.0598   -1.043
 149   0.4843   0.0610   -1.071
 150   0.5000   0.0620   -1.080
 151   0.5157   0.0627   -1.077
 152   0.5314   0.0631   -1.084
 153   0.5471   0.0632   -1.063
 154   0.5627   0.0630   -1.049
 155   0.5782   0.0625   -1.022
 156   0.5937   0.0618   -0.990
 157   0.6091   0.0608   -0.948
 158   0.6243   0.0595   -0.908
 159   0.6395   0.0580   -0.852
 160   0.6545   0.0563   -0.795
 161   0.6694   0.0544   -0.745
 162   0.6841   0.0524   -0.670
 163   0.6986   0.0501   -0.613
 164   0.7129   0.0478   -0.543
 165   0.7270   0.0454   -0.471
 166   0.7409   0.0428   -0.403
 167   0.7545   0.0403   -0.329
 168   0.7679   0.0376   -0.253
 169   0.7810   0.0350   -0.186
 170   0.7939   0.0324   -0.118
 171   0.8065   0.0298   -0.046
 172   0.8187   0.0273    0.020
 173   0.8307   0.0248    0.085
 174   0.8423   0.0225    0.150
 175   0.8536   0.0202    0.201
 176   0.8645   0.0180    0.266
 177   0.8751   0.0160    0.311
 178   0.8853   0.0141    0.354
 179   0.8951   0.0123    0.402
 180   0.9045   0.0107    0.437
 181   0.9135   0.0092    0.468
 182   0.9222   0.0078    0.487
 183   0.9304   0.0066    0.511
 184   0.9382   0.0055    0.526
 185   0.9455   0.0046    0.529
 186   0.9524   0.0037    0.532
 187   0.9589   0.0030    0.514
 188   0.9649   0.0024    0.521
 189   0.9704   0.0019    0.488
 190   0.9755   0.0014    0.459
 191   0.9801   0.0011    0.449
 192   0.9843   0.0008    0.390
 193   0.9880   0.0006    0.363
 194   0.9911   0.0004    0.339
 195   0.9938   0.0003    0.254
 196   0.9961   0.0002    0.229
 197   0.9978   0.0001    0.174
 198   0.9990   0.0000    0.095
 199   0.9998   0.0000    0.003

 Maximum panel corner angle = 11.490   at  i,x,y  = 101   0.0002  -0.0024

 Enter corner angle criterion for refinement (deg):   5.745
 Enter type of spline parameter (1=uniform, 2=arclength):   1
 Enter refinement x limits:  -0.10000   1.10000
 Number of points added:           14
 Max thickness =     0.126099  at x =   0.136
 Max camber    =     0.098718  at x =   0.500

 Maximum panel corner angle =  6.694   at  i,x,y  = 103   0.0001  -0.0018

.GDES   c>  
 Buffer airfoil is not identical to current airfoil

 XFOIL   c>  
 Blunt trailing edge.  Gap =  0.00028

 Paneling parameters used...
   Number of panel nodes       160
   Panel bunching parameter    1.000
   TE/LE panel density ratio   0.150
   Refined-area/LE panel density ratio    0.200
   Top    side refined area x/c limits  1.000 1.000
   Bottom side refined area x/c limits  1.000 1.000

 XFOIL   c>  
.OPERi   c>   Current iteration limit:          20

Enter new iteration limit   i>  
Enter new iteration limit   i>  
Enter new iteration limit   i>  
.OPERi   c>  
 M  =    0.0000
 Re =  0.3000E+06

.OPERv   c>  
 Sonic Cp =    -66.86      Sonic Q/Qinf =     9.138


.OPERv   c>  
 Polar  1 newly created for accumulation
 Airfoil archived with polar: 000158                                          

Enter  polar save filename  OR  <return> for no file   s>  
 New polar save file available

Enter  polar dump filename  OR  <return> for no file   s>  
 Polar dump file will NOT be written

 Polar accumulation enabled

.OPERva   c>   Calculating unit vorticity distributions ...
 Calculating wake trajectory ...
 Calculating source influence matrix ...

 Solving BL system ...

 Initializing BL ...
    side            1  ...
 MRCHUE: Inverse mode at  42     Hk =   4.606
 MRCHUE: Inverse mode at  43     Hk =   5.603
 MRCHUE: Inverse mode at  44     Hk =   6.606
 MRCHUE: Inverse mode at  45     Hk =   7.618
 MRCHUE: Inverse mode at  46     Hk =   8.638
 MRCHUE: Inverse mode at  47     Hk =   5.028
 MRCHUE: Inverse mode at  48     Hk =   2.500
 MRCHUE: Inverse mode at  80     Hk =   2.500
 MRCHUE: Inverse mode at  81     Hk =   2.500
 MRCHUE: Inverse mode at  82     Hk =   2.500
 MRCHUE: Inverse mode at  83     Hk =   2.500
 MRCHUE: Inverse mode at  84     Hk =   2.500
 MRCHUE: Convergence failed at  85  side 1    Res =  0.3693E+02
    side            2  ...
 MRCHUE: Inverse mode at  30     Hk =   4.155
 MRCHUE: Inverse mode at  31     Hk =   4.899
 MRCHUE: Inverse mode at  32     Hk =   5.667
 MRCHUE: Inverse mode at  33     Hk =   6.464
 MRCHUE: Inverse mode at  34     Hk =   7.295
 MRCHUE: Inverse mode at  35     Hk =   8.156
 MRCHUE: Inverse mode at  36     Hk =   9.040
 MRCHUE: Inverse mode at  37     Hk =   8.914
 MRCHUE: Inverse mode at  38     Hk =   5.065
 MRCHUE: Inverse mode at  39     Hk =   3.240
 MRCHUE: Convergence failed at  77  side 2    Res =  0.2728E+01
 MRCHUE: Convergence failed at  79  side 2    Res =  0.9806E-01

 MRCHDU: Convergence failed at  85  side 1    Res =  0.3959E+02
 MRCHDU: Convergence failed at  77  side 2    Res =  0.1201E+01
 MRCHDU: Convergence failed at  79  side 2    Res =  0.9799E-01
 Side 1  free  transition at x/c =  0.2771   47
 Side 2  free  transition at x/c =  0.2481   37

   1   rms: 0.1038E+01   max: 0.5431E+01   D at   79  2   RLX: 0.276
       a =  2.000      CL =  1.3877
      Cm = -0.2612     CD =  0.00347   =>   CDf =  0.00967    CDp = -0.00620

 Side 1  free  transition at x/c =  0.2878   47
 Side 2  free  transition at x/c =  0.2401   37

   2   rms: 0.5132E+00   max: 0.2418E+01   D at   80  2   RLX: 0.343
       a =  2.000      CL =  1.3247
      Cm = -0.2457     CD =  0.00694   =>   CDf =  0.00966    CDp = -0.00273

 Side 1  free  transition at x/c =  0.3075   48
 Side 2  free  transition at x/c =  0.2337   37

   3   rms: 0.3187E+00   max: -.1363E+01   T at   48  1   RLX: 0.367
       a =  2.000      CL =  1.2593
      Cm = -0.2300     CD =  0.00947   =>   CDf =  0.00948    CDp = -0.00000

 Side 1  free  transition at x/c =  0.3377   50
 Side 2  free  transition at x/c =  0.2299   36

   4   rms: 0.2542E+00   max: -.2448E+01   C at   50  1   RLX: 0.204
       a =  2.000      CL =  1.2297
      Cm = -0.2228     CD =  0.01033   =>   CDf =  0.00920    CDp =  0.00113

 Side 1  free  transition at x/c =  0.3608   50
 Side 2  free  transition at x/c =  0.2255   37

   5   rms: 0.2684E+00   max: -.4263E+01   C at   50  1   RLX: 0.117
       a =  2.000      CL =  1.2181
      Cm = -0.2201     CD =  0.01074   =>   CDf =  0.00877    CDp =  0.00198

 Side 1  free  transition at x/c =  0.3733   50
 Side 2  free  transition at x/c =  0.2236   37

   6   rms: 0.2040E+00   max: -.1207E+01   T at   50  1   RLX: 0.414
       a =  2.000      CL =  1.1507
      Cm = -0.2055     CD =  0.01285   =>   CDf =  0.00870    CDp =  0.00415

 Side 1  free  transition at x/c =  0.7002   67
 Side 2  free  transition at x/c =  0.2145   37

   7   rms: 0.1807E+00   max: -.1931E+01   C at   67  1   RLX: 0.259
       a =  2.000      CL =  1.1734
      Cm = -0.2097     CD =  0.01261   =>   CDf =  0.00636    CDp =  0.00625

 Side 1  free  transition at x/c =  0.7174   68
 Side 2  free  transition at x/c =  0.2152   37

   8   rms: 0.9023E-01   max: 0.7431E+00   D at   82  1
       a =  2.000      CL =  1.1965
      Cm = -0.2127     CD =  0.01417   =>   CDf =  0.00625    CDp =  0.00793

 Side 1  free  transition at x/c =  0.7333   69
 Side 2  free  transition at x/c =  0.2160   37

   9   rms: 0.7498E-01   max: -.4972E+00   D at   69  1
       a =  2.000      CL =  1.2006
      Cm = -0.2122     CD =  0.01261   =>   CDf =  0.00644    CDp =  0.00617

 Side 1  free  transition at x/c =  0.7503   69
 Side 2  free  transition at x/c =  0.2164   37

  10   rms: 0.4757E-01   max: 0.2142E+00   D at   83  1
       a =  2.000      CL =  1.1535
      Cm = -0.2033     CD =  0.01450   =>   CDf =  0.00618    CDp =  0.00832

 Side 1  free  transition at x/c =  0.7467   69
 Side 2  free  transition at x/c =  0.2126   36

  11   rms: 0.7273E-02   max: -.3416E-01   D at   78  1
       a =  2.000      CL =  1.1579
      Cm = -0.2044     CD =  0.01473   =>   CDf =  0.00609    CDp =  0.00864

 Side 1  free  transition at x/c =  0.7452   69
 Side 2  free  transition at x/c =  0.2122   36

  12   rms: 0.2722E-03   max: -.1512E-02   D at   82  1
       a =  2.000      CL =  1.1579
      Cm = -0.2044     CD =  0.01473   =>   CDf =  0.00609    CDp =  0.00864

 Side 1  free  transition at x/c =  0.7452   69
 Side 2  free  transition at x/c =  0.2122   36

  13   rms: 0.3739E-05   max: -.1750E-04   D at   77  1
       a =  2.000      CL =  1.1579
      Cm = -0.2044     CD =  0.01473   =>   CDf =  0.00609    CDp =  0.00864

 Point added to stored polar  1
 Point written to save file  000158M0.1.log                                  
 Dump file unspecified or not available
 Calculating wake trajectory ...
 Calculating source influence matrix ...

 Solving BL system ...

 Side 1  free  transition at x/c =  0.7452   69
 Side 2  free  transition at x/c =  0.2122   36

   1   rms: 0.1416E+00   max: -.8152E+00   T at   36  2   RLX: 0.613
       a =  3.000      CL =  1.1637
      Cm = -0.1917     CD =  0.01601   =>   CDf =  0.00610    CDp =  0.00991

 MRCHDU: Convergence failed at  37  side 2    Res =  0.3206E+01
 MRCHDU: Convergence failed at  38  side 2    Res =  0.9131E+02
 MRCHDU: Convergence failed at  39  side 2    Res =  0.7801E+01
 MRCHDU: Convergence failed at  40  side 2    Res =  0.1238E+02
 MRCHDU: Convergence failed at  41  side 2    Res =  0.1753E+02
 MRCHDU: Convergence failed at  42  side 2    Res =  0.2040E+02
 MRCHDU: Convergence failed at  43  side 2    Res =  0.2142E+02
 MRCHDU: Convergence failed at  44  side 2    Res =  0.2166E+02
 MRCHDU: Convergence failed at  45  side 2    Res =  0.2066E+02
 MRCHDU: Convergence failed at  46  side 2    Res =  0.1968E+02
 MRCHDU: Convergence failed at  47  side 2    Res =  0.1888E+02
 MRCHDU: Convergence failed at  48  side 2    Res =  0.1838E+02
 MRCHDU: Convergence failed at  49  side 2    Res =  0.1784E+02
 MRCHDU: Convergence failed at  50  side 2    Res =  0.1786E+02
 MRCHDU: Convergence failed at  51  side 2    Res =  0.1812E+02
 MRCHDU: Convergence failed at  52  side 2    Res =  0.1861E+02
 MRCHDU: Convergence failed at  53  side 2    Res =  0.1952E+02
 MRCHDU: Convergence failed at  54  side 2    Res =  0.2048E+02
 MRCHDU: Convergence failed at  55  side 2    Res =  0.2174E+02
 MRCHDU: Convergence failed at  56  side 2    Res =  0.2365E+02
 MRCHDU: Convergence failed at  57  side 2    Res =  0.2596E+02
 MRCHDU: Convergence failed at  58  side 2    Res =  0.2986E+02
 MRCHDU: Convergence failed at  59  side 2    Res =  0.3523E+02
 MRCHDU: Convergence failed at  60  side 2    Res =  0.4388E+02
 MRCHDU: Convergence failed at  61  side 2    Res =  0.5809E+02
 MRCHDU: Convergence failed at  62  side 2    Res =  0.9818E+02
 MRCHDU: Convergence failed at  63  side 2    Res =  0.3027E+03
 MRCHDU: Convergence failed at  64  side 2    Res =  0.2922E+03
 MRCHDU: Convergence failed at  65  side 2    Res =  0.1221E+03
 MRCHDU: Convergence failed at  66  side 2    Res =  0.1118E+03
 MRCHDU: Convergence failed at  67  side 2    Res =  0.3473E+03
 MRCHDU: Convergence failed at  68  side 2    Res =  0.2221E+02
 MRCHDU: Convergence failed at  69  side 2    Res =  0.6420E+01
 Side 1  free  transition at x/c =  0.6998   67
 Side 2  free  transition at x/c =  0.2248   37

   2   rms: 0.4465E+00   max: 0.1732E+01   T at   53  2   RLX: 0.387
       a =  3.000      CL =  1.0617
      Cm = -0.1550     CD =  0.01488   =>   CDf =  0.00409    CDp =  0.01078

 Side 1  free  transition at x/c =  0.6887   67
 Side 2  free  transition at x/c =  0.2219   36

   3   rms: 0.2008E+00   max: -.8375E+00   D at   47  2   RLX: 0.597
       a =  3.000      CL =  1.1750
      Cm = -0.1808     CD =  0.01668   =>   CDf =  0.00650    CDp =  0.01019

 Side 1  free  transition at x/c =  0.6694   66
 Side 2  free  transition at x/c =  0.2306   36

   4   rms: 0.4301E+00   max: -.3317E+01   T at   36  2   RLX: 0.151
       a =  3.000      CL =  1.1887
      Cm = -0.1832     CD =  0.01676   =>   CDf =  0.00625    CDp =  0.01051

 MRCHDU: Convergence failed at  37  side 2    Res =  0.4902E+01
 MRCHDU: Convergence failed at  38  side 2    Res =  0.6330E+01
 MRCHDU: Convergence failed at  39  side 2    Res =  0.1180E+02
 MRCHDU: Convergence failed at  40  side 2    Res =  0.8743E+01
 MRCHDU: Convergence failed at  41  side 2    Res =  0.1553E+03
 MRCHDU: Convergence failed at  42  side 2    Res =  0.6935E+01
 MRCHDU: Convergence failed at  43  side 2    Res =  0.2529E+02
 MRCHDU: Convergence failed at  44  side 2    Res =  0.9367E+01
 MRCHDU: Convergence failed at  45  side 2    Res =  0.9853E+01
 MRCHDU: Convergence failed at  46  side 2    Res =  0.1175E+02
 MRCHDU: Convergence failed at  47  side 2    Res =  0.1414E+02
 MRCHDU: Convergence failed at  48  side 2    Res =  0.1903E+02
 MRCHDU: Convergence failed at  49  side 2    Res =  0.3316E+02
 MRCHDU: Convergence failed at  50  side 2    Res =  0.1090E+03
 MRCHDU: Convergence failed at  51  side 2    Res =  0.4996E+02
 MRCHDU: Convergence failed at  52  side 2    Res =  0.1358E+03
 MRCHDU: Convergence failed at  53  side 2    Res =  0.6889E+02
 MRCHDU: Convergence failed at  54  side 2    Res =  0.5807E+02
 MRCHDU: Convergence failed at  55  side 2    Res =  0.4959E+02
 MRCHDU: Convergence failed at  56  side 2    Res =  0.4249E+02
 MRCHDU: Convergence failed at  57  side 2    Res =  0.3797E+02
 MRCHDU: Convergence failed at  58  side 2    Res =  0.3377E+02
 MRCHDU: Convergence failed at  59  side 2    Res =  0.2945E+02
 MRCHDU: Convergence failed at  60  side 2    Res =  0.2555E+02
 MRCHDU: Convergence failed at  61  side 2    Res =  0.1941E+02
 MRCHDU: Convergence failed at  62  side 2    Res =  0.1491E+02
 MRCHDU: Convergence failed at  63  side 2    Res =  0.1063E+02
 MRCHDU: Convergence failed at  64  side 2    Res =  0.7364E+01
 MRCHDU: Convergence failed at  65  side 2    Res =  0.4884E+01
 MRCHDU: Convergence failed at  66  side 2    Res =  0.3132E+01
 MRCHDU: Convergence failed at  67  side 2    Res =  0.3217E+01
 MRCHDU: Convergence failed at  68  side 2    Res =  0.3656E+01
 Side 1  free  transition at x/c =  0.6663   66
 Side 2  free  transition at x/c =  0.2451   37

   5   rms: 0.4087E+00   max: 0.1653E+01   T at   53  2   RLX: 0.417
       a =  3.000      CL =  1.1212
      Cm = -0.1657     CD =  0.01384   =>   CDf =  0.00445    CDp =  0.00939

 Side 1  free  transition at x/c =  0.6552   65
 Side 2  free  transition at x/c =  0.2329   37

   6   rms: 0.1667E+00   max: -.8368E+00   D at   50  2   RLX: 0.598
       a =  3.000      CL =  1.2001
      Cm = -0.1858     CD =  0.01550   =>   CDf =  0.00673    CDp =  0.00877

 Side 1  free  transition at x/c =  0.6459   65
 Side 2  free  transition at x/c =  0.2350   37

   7   rms: 0.1826E+00   max: -.1453E+01   D at   49  2   RLX: 0.344
       a =  3.000      CL =  1.2146
      Cm = -0.1896     CD =  0.01500   =>   CDf =  0.00631    CDp =  0.00869

 Side 1  free  transition at x/c =  0.6429   65
 Side 2  free  transition at x/c =  0.2366   37

   8   rms: 0.1082E+00   max: -.1029E+01   D at   50  2   RLX: 0.486
       a =  3.000      CL =  1.2259
      Cm = -0.1927     CD =  0.01477   =>   CDf =  0.00645    CDp =  0.00833

 Side 1  free  transition at x/c =  0.6408   65
 Side 2  free  transition at x/c =  0.2372   37

   9   rms: 0.8209E-01   max: -.7926E+00   D at   52  2   RLX: 0.631
       a =  3.000      CL =  1.2335
      Cm = -0.1948     CD =  0.01461   =>   CDf =  0.00644    CDp =  0.00817

 Side 1  free  transition at x/c =  0.6396   65
 Side 2  free  transition at x/c =  0.2368   37

  10   rms: 0.4888E-01   max: -.5068E+00   D at   52  2   RLX: 0.987
       a =  3.000      CL =  1.2374
      Cm = -0.1959     CD =  0.01455   =>   CDf =  0.00643    CDp =  0.00812

 Side 1  free  transition at x/c =  0.6393   65
 Side 2  free  transition at x/c =  0.2358   37

  11   rms: 0.8494E-02   max: -.1219E+00   D at   52  2
       a =  3.000      CL =  1.2372
      Cm = -0.1958     CD =  0.01456   =>   CDf =  0.00642    CDp =  0.00814

 Side 1  free  transition at x/c =  0.6394   65
 Side 2  free  transition at x/c =  0.2355   37

  12   rms: 0.3408E-03   max: -.5607E-02   D at   52  2
       a =  3.000      CL =  1.2372
      Cm = -0.1958     CD =  0.01456   =>   CDf =  0.00642    CDp =  0.00814

 Side 1  free  transition at x/c =  0.6394   65
 Side 2  free  transition at x/c =  0.2355   37

  13   rms: 0.1320E-05   max: -.1261E-04   D at   52  2
       a =  3.000      CL =  1.2372
      Cm = -0.1958     CD =  0.01456   =>   CDf =  0.00642    CDp =  0.00814

 Point added to stored polar  1
 Point written to save file  000158M0.1.log                                  
 Dump file unspecified or not available
 Calculating wake trajectory ...
 Calculating source influence matrix ...

 Solving BL system ...

 Side 1  free  transition at x/c =  0.6394   65
 Side 2  free  transition at x/c =  0.2355   37

   1   rms: 0.3113E+00   max: 0.5049E+01   C at   65  1   RLX: 0.250
       a =  4.000      CL =  1.2517
      Cm = -0.1924     CD =  0.01477   =>   CDf =  0.00644    CDp =  0.00833

 Side 1  free  transition at x/c =  0.4987   57
 Side 2  free  transition at x/c =  0.2407   37

   2   rms: 0.3144E+00   max: 0.5621E+01   C at   57  1   RLX: 0.267
       a =  4.000      CL =  1.2377
      Cm = -0.1873     CD =  0.01666   =>   CDf =  0.00737    CDp =  0.00929

 Side 1  free  transition at x/c =  0.4331   54
 Side 2  free  transition at x/c =  0.2424   37

   3   rms: 0.1619E+00   max: 0.2651E+01   C at   54  1   RLX: 0.566
       a =  4.000      CL =  1.2168
      Cm = -0.1773     CD =  0.01891   =>   CDf =  0.00780    CDp =  0.01111

 Side 1  free  transition at x/c =  0.3802   52
 Side 2  free  transition at x/c =  0.2456   37

   4   rms: 0.5034E-01   max: 0.5226E+00   C at   52  1
       a =  4.000      CL =  1.2034
      Cm = -0.1701     CD =  0.02071   =>   CDf =  0.00814    CDp =  0.01257

 Side 1  free  transition at x/c =  0.3583   51
 Side 2  free  transition at x/c =  0.2484   37

   5   rms: 0.3558E-02   max: 0.3464E-01   D at   83  2
       a =  4.000      CL =  1.2045
      Cm = -0.1703     CD =  0.02064   =>   CDf =  0.00826    CDp =  0.01238

 Side 1  free  transition at x/c =  0.3582   51
 Side 2  free  transition at x/c =  0.2486   37

   6   rms: 0.7896E-04   max: 0.1267E-02   C at   51  1
       a =  4.000      CL =  1.2045
      Cm = -0.1703     CD =  0.02064   =>   CDf =  0.00826    CDp =  0.01238

 Point added to stored polar  1
 Point written to save file  000158M0.1.log                                  
 Dump file unspecified or not available
 Calculating wake trajectory ...
 Calculating source influence matrix ...

 Solving BL system ...

 Side 1  free  transition at x/c =  0.3581   51
 Side 2  free  transition at x/c =  0.2486   37

   1   rms: 0.2064E+00   max: 0.2834E+01   C at   51  1   RLX: 0.465
       a =  5.000      CL =  1.2156
      Cm = -0.1638     CD =  0.02294   =>   CDf =  0.00809    CDp =  0.01486

 Side 1  free  transition at x/c =  0.3209   50
 Side 2  free  transition at x/c =  0.2607   37

   2   rms: 0.9915E-01   max: 0.7996E+00   D at   37  2
       a =  5.000      CL =  1.2542
      Cm = -0.1605     CD =  0.02415   =>   CDf =  0.00844    CDp =  0.01571

 Side 1  free  transition at x/c =  0.2888   48
 Side 2  free  transition at x/c =  0.2692   37

   3   rms: 0.2268E-01   max: 0.2398E+00   D at   49  1
       a =  5.000      CL =  1.2554
      Cm = -0.1607     CD =  0.02402   =>   CDf =  0.00874    CDp =  0.01529

 Side 1  free  transition at x/c =  0.2893   48
 Side 2  free  transition at x/c =  0.2712   38

   4   rms: 0.4712E-02   max: 0.6072E-01   D at   38  2
       a =  5.000      CL =  1.2563
      Cm = -0.1608     CD =  0.02395   =>   CDf =  0.00871    CDp =  0.01524

 Side 1  free  transition at x/c =  0.2884   48
 Side 2  free  transition at x/c =  0.2711   38

   5   rms: 0.2978E-03   max: 0.2442E-02   D at   38  2
       a =  5.000      CL =  1.2563
      Cm = -0.1608     CD =  0.02395   =>   CDf =  0.00871    CDp =  0.01524

 Side 1  free  transition at x/c =  0.2884   48
 Side 2  free  transition at x/c =  0.2711   38

   6   rms: 0.8599E-06   max: 0.5642E-05   T at   38  2
       a =  5.000      CL =  1.2563
      Cm = -0.1608     CD =  0.02395   =>   CDf =  0.00871    CDp =  0.01524

 Point added to stored polar  1
 Point written to save file  000158M0.1.log                                  
 Dump file unspecified or not available
 Calculating wake trajectory ...
 Calculating source influence matrix ...

 Solving BL system ...

 Side 1  free  transition at x/c =  0.2884   48
 Side 2  free  transition at x/c =  0.2711   38

   1   rms: 0.1875E+00   max: -.1257E+01   T at   38  2   RLX: 0.398
       a =  6.000      CL =  1.2884
      Cm = -0.1590     CD =  0.02450   =>   CDf =  0.00853    CDp =  0.01597

 Side 1  free  transition at x/c =  0.2704   48
 Side 2  free  transition at x/c =  0.2855   37

   2   rms: 0.8779E-01   max: -.4534E+00   T at   37  2
       a =  6.000      CL =  1.3314
      Cm = -0.1550     CD =  0.02616   =>   CDf =  0.00882    CDp =  0.01734

 Side 1  free  transition at x/c =  0.2511   47
 Side 2  free  transition at x/c =  0.3035   38

   3   rms: 0.4239E-01   max: 0.5254E+00   D at   38  2
       a =  6.000      CL =  1.3206
      Cm = -0.1536     CD =  0.02675   =>   CDf =  0.00889    CDp =  0.01786

 Side 1  free  transition at x/c =  0.2518   47
 Side 2  free  transition at x/c =  0.2990   38

   4   rms: 0.9401E-02   max: -.1038E+00   C at   47  1
       a =  6.000      CL =  1.3202
      Cm = -0.1536     CD =  0.02678   =>   CDf =  0.00891    CDp =  0.01787

 Side 1  free  transition at x/c =  0.2519   47
 Side 2  free  transition at x/c =  0.2969   38

   5   rms: 0.6921E-02   max: -.1038E+00   C at   47  1
       a =  6.000      CL =  1.3202
      Cm = -0.1536     CD =  0.02678   =>   CDf =  0.00892    CDp =  0.01786

 Side 1  free  transition at x/c =  0.2519   47
 Side 2  free  transition at x/c =  0.2969   38

   6   rms: 0.6873E-02   max: -.1038E+00   C at   47  1
       a =  6.000      CL =  1.3202
      Cm = -0.1536     CD =  0.02678   =>   CDf =  0.00892    CDp =  0.01786

 Side 1  free  transition at x/c =  0.2519   47
 Side 2  free  transition at x/c =  0.2969   38

   7   rms: 0.6873E-02   max: -.1038E+00   C at   47  1
       a =  6.000      CL =  1.3202
      Cm = -0.1536     CD =  0.02678   =>   CDf =  0.00892    CDp =  0.01786

 Side 1  free  transition at x/c =  0.2519   47
 Side 2  free  transition at x/c =  0.2969   38

   8   rms: 0.6873E-02   max: -.1038E+00   C at   47  1
       a =  6.000      CL =  1.3202
      Cm = -0.1536     CD =  0.02678   =>   CDf =  0.00892    CDp =  0.01786

 Side 1  free  transition at x/c =  0.2519   47
 Side 2  free  transition at x/c =  0.2969   38

   9   rms: 0.6873E-02   max: -.1038E+00   C at   47  1
       a =  6.000      CL =  1.3202
      Cm = -0.1536     CD =  0.02678   =>   CDf =  0.00892    CDp =  0.01786

 Side 1  free  transition at x/c =  0.2519   47
 Side 2  free  transition at x/c =  0.2969   38

  10   rms: 0.6873E-02   max: -.1038E+00   C at   47  1
       a =  6.000      CL =  1.3202
      Cm = -0.1536     CD =  0.02678   =>   CDf =  0.00892    CDp =  0.01786

 Side 1  free  transition at x/c =  0.2519   47
 Side 2  free  transition at x/c =  0.2969   38

  11   rms: 0.6873E-02   max: -.1038E+00   C at   47  1
       a =  6.000      CL =  1.3202
      Cm = -0.1536     CD =  0.02678   =>   CDf =  0.00892    CDp =  0.01786

 Side 1  free  transition at x/c =  0.2519   47
 Side 2  free  transition at x/c =  0.2969   38

  12   rms: 0.6873E-02   max: -.1038E+00   C at   47  1
       a =  6.000      CL =  1.3202
      Cm = -0.1536     CD =  0.02678   =>   CDf =  0.00892    CDp =  0.01786

 Side 1  free  transition at x/c =  0.2519   47
 Side 2  free  transition at x/c =  0.2969   38

  13   rms: 0.6873E-02   max: -.1038E+00   C at   47  1
       a =  6.000      CL =  1.3202
      Cm = -0.1536     CD =  0.02678   =>   CDf =  0.00892    CDp =  0.01786

 Side 1  free  transition at x/c =  0.2519   47
 Side 2  free  transition at x/c =  0.2969   38

  14   rms: 0.6873E-02   max: -.1038E+00   C at   47  1
       a =  6.000      CL =  1.3202
      Cm = -0.1536     CD =  0.02678   =>   CDf =  0.00892    CDp =  0.01786

 Side 1  free  transition at x/c =  0.2519   47
 Side 2  free  transition at x/c =  0.2969   38

  15   rms: 0.6873E-02   max: -.1038E+00   C at   47  1
       a =  6.000      CL =  1.3202
[...]

  21   rms: 0.6873E-02   max: -.1038E+00   C at   47  1
       a =  6.000      CL =  1.3202
      Cm = -0.1536     CD =  0.02678   =>   CDf =  0.00892    CDp =  0.01786

 Side 1  free  transition at x/c =  0.2519   47
 Side 2  free  transition at x/c =  0.2969   38

  22   rms: 0.6873E-02   max: -.1038E+00   C at   47  1
       a =  6.000      CL =  1.3202
      Cm = -0.1536     CD =  0.02678   =>   CDf =  0.00892    CDp =  0.01786

 Side 1  free  transition at x/c =  0.2519   47
 Side 2  free  transition at x/c =  0.2969   38

  23   rms: 0.6873E-02   max: -.1038E+00   C at   47  1
       a =  6.000      CL =  1.3202
      Cm = -0.1536     CD =  0.02678   =>   CDf =  0.00892    CDp =  0.01786

 Side 1  free  transition at x/c =  0.2519   47
 Side 2  free  transition at x/c =  0.2969   38

  24   rms: 0.6873E-02   max: -.1038E+00   C at   47  1
       a =  6.000      CL =  1.3202
      Cm = -0.1536     CD =  0.02678   =>   CDf =  0.00892    CDp =  0.01786

 Side 1  free  transition at x/c =  0.2519   47
 Side 2  free  transition at x/c =  0.2969   38

  25   rms: 0.6873E-02   max: -.1038E+00   C at   47  1
       a =  6.000      CL =  1.3202
      Cm = -0.1536     CD =  0.02678   =>   CDf =  0.00892    CDp =  0.01786
 VISCAL:  Convergence failed
 Calculating wake trajectory ...
 Calculating source influence matrix ...

 Solving BL system ...

 Side 1  free  transition at x/c =  0.2519   47
 Side 2  free  transition at x/c =  0.2969   38

   1   rms: 0.1477E+00   max: -.9503E+00   T at   38  2   RLX: 0.526
       a =  7.000      CL =  1.3641
      Cm = -0.1513     CD =  0.02769   =>   CDf =  0.00872    CDp =  0.01897

 Side 1  free  transition at x/c =  0.2378   48
 Side 2  free  transition at x/c =  0.3098   37

   2   rms: 0.7928E-01   max: -.6963E+00   T at   37  2   RLX: 0.718
       a =  7.000      CL =  1.3821
      Cm = -0.1484     CD =  0.02937   =>   CDf =  0.00895    CDp =  0.02042

 MRCHDU: Convergence failed at  38  side 2    Res =  0.3047E+01
 MRCHDU: Convergence failed at  39  side 2    Res =  0.5036E+02
 MRCHDU: Convergence failed at  40  side 2    Res =  0.5965E+01
 MRCHDU: Convergence failed at  41  side 2    Res =  0.9377E+01
 MRCHDU: Convergence failed at  42  side 2    Res =  0.1560E+02
 MRCHDU: Convergence failed at  43  side 2    Res =  0.2323E+02
 MRCHDU: Convergence failed at  44  side 2    Res =  0.3175E+02
 MRCHDU: Convergence failed at  45  side 2    Res =  0.4026E+02
 MRCHDU: Convergence failed at  46  side 2    Res =  0.4801E+02
 MRCHDU: Convergence failed at  47  side 2    Res =  0.5427E+02
 MRCHDU: Convergence failed at  48  side 2    Res =  0.6029E+02
 MRCHDU: Convergence failed at  49  side 2    Res =  0.6308E+02
 MRCHDU: Convergence failed at  50  side 2    Res =  0.6335E+02
 MRCHDU: Convergence failed at  51  side 2    Res =  0.5965E+02
 MRCHDU: Convergence failed at  52  side 2    Res =  0.5265E+02
 MRCHDU: Convergence failed at  53  side 2    Res =  0.4044E+02
 MRCHDU: Convergence failed at  54  side 2    Res =  0.2757E+02
 MRCHDU: Convergence failed at  55  side 2    Res =  0.1708E+02
 MRCHDU: Convergence failed at  56  side 2    Res =  0.8934E+01
 MRCHDU: Convergence failed at  57  side 2    Res =  0.5135E+01
 MRCHDU: Convergence failed at  58  side 2    Res =  0.2506E+01
 Side 1  free  transition at x/c =  0.2318   47
 Side 2  free  transition at x/c =  0.3241   38

   3   rms: 0.2383E+00   max: 0.1216E+01   T at   45  2   RLX: 0.503
       a =  7.000      CL =  1.3626
      Cm = -0.1416     CD =  0.02860   =>   CDf =  0.00793    CDp =  0.02067

 Side 1  free  transition at x/c =  0.2299   47
 Side 2  free  transition at x/c =  0.3211   38

   4   rms: 0.6829E-01   max: -.6521E+00   D at   40  2   RLX: 0.767
       a =  7.000      CL =  1.3858
      Cm = -0.1464     CD =  0.02939   =>   CDf =  0.00912    CDp =  0.02027

 Side 1  free  transition at x/c =  0.2284   47
 Side 2  free  transition at x/c =  0.3255   38

   5   rms: 0.2214E-01   max: -.3276E+00   D at   40  2
       a =  7.000      CL =  1.3916
      Cm = -0.1477     CD =  0.02929   =>   CDf =  0.00891    CDp =  0.02039

 Side 1  free  transition at x/c =  0.2280   47
 Side 2  free  transition at x/c =  0.3276   38

   6   rms: 0.3251E-02   max: 0.4160E-01   D at   39  2
       a =  7.000      CL =  1.3917
      Cm = -0.1477     CD =  0.02930   =>   CDf =  0.00886    CDp =  0.02043

 Side 1  free  transition at x/c =  0.2280   47
 Side 2  free  transition at x/c =  0.3271   38

   7   rms: 0.7002E-04   max: 0.1047E-02   D at   39  2
       a =  7.000      CL =  1.3917
      Cm = -0.1477     CD =  0.02930   =>   CDf =  0.00886    CDp =  0.02043

 Point added to stored polar  1
 Point written to save file  000158M0.1.log                                  
 Dump file unspecified or not available
 Calculating wake trajectory ...
 Calculating source influence matrix ...

 Solving BL system ...

 Side 1  free  transition at x/c =  0.2280   47
 Side 2  free  transition at x/c =  0.3271   38

   1   rms: 0.1408E+00   max: -.9362E+00   T at   38  2   RLX: 0.534
       a =  8.000      CL =  1.4319
      Cm = -0.1449     CD =  0.03062   =>   CDf =  0.00864    CDp =  0.02198

 MRCHDU: Convergence failed at  39  side 2    Res =  0.2673E+01
 MRCHDU: Convergence failed at  40  side 2    Res =  0.5595E+01
 MRCHDU: Convergence failed at  41  side 2    Res =  0.9164E+01
 MRCHDU: Convergence failed at  42  side 2    Res =  0.2045E+02
 MRCHDU: Convergence failed at  43  side 2    Res =  0.4503E+02
 MRCHDU: Convergence failed at  44  side 2    Res =  0.1205E+03
 MRCHDU: Convergence failed at  45  side 2    Res =  0.1194E+04
 MRCHDU: Convergence failed at  46  side 2    Res =  0.2056E+03
 MRCHDU: Convergence failed at  47  side 2    Res =  0.1497E+03
 MRCHDU: Convergence failed at  48  side 2    Res =  0.1419E+03
 MRCHDU: Convergence failed at  49  side 2    Res =  0.1619E+03
 MRCHDU: Convergence failed at  50  side 2    Res =  0.3125E+03
 MRCHDU: Convergence failed at  51  side 2    Res =  0.1661E+03
 MRCHDU: Convergence failed at  52  side 2    Res =  0.5344E+02
 MRCHDU: Convergence failed at  53  side 2    Res =  0.2259E+02
 MRCHDU: Convergence failed at  54  side 2    Res =  0.9668E+01
 MRCHDU: Convergence failed at  55  side 2    Res =  0.5107E+01
 Side 1  free  transition at x/c =  0.2160   48
 Side 2  free  transition at x/c =  0.3501   39

   2   rms: 0.2146E+00   max: 0.1039E+01   T at   46  2   RLX: 0.489
       a =  8.000      CL =  1.4287
      Cm = -0.1389     CD =  0.03117   =>   CDf =  0.00817    CDp =  0.02300

 Side 1  free  transition at x/c =  0.2110   47
 Side 2  free  transition at x/c =  0.3553   39

   3   rms: 0.5869E-01   max: -.5246E+00   D at   40  2   RLX: 0.953
       a =  8.000      CL =  1.4578
      Cm = -0.1416     CD =  0.03213   =>   CDf =  0.00906    CDp =  0.02307

 Side 1  free  transition at x/c =  0.2091   47
 Side 2  free  transition at x/c =  0.3599   39

   4   rms: 0.5900E-02   max: 0.9604E-01   D at   41  2
       a =  8.000      CL =  1.4613
      Cm = -0.1419     CD =  0.03201   =>   CDf =  0.00881    CDp =  0.02320

 Side 1  free  transition at x/c =  0.2085   47
 Side 2  free  transition at x/c =  0.3602   39

   5   rms: 0.2562E-03   max: -.5556E-02   D at   41  2
       a =  8.000      CL =  1.4613
      Cm = -0.1419     CD =  0.03202   =>   CDf =  0.00881    CDp =  0.02321

 Side 1  free  transition at x/c =  0.2085   47
 Side 2  free  transition at x/c =  0.3602   39

   6   rms: 0.3058E-05   max: -.1782E-04   D at   41  2
       a =  8.000      CL =  1.4613
      Cm = -0.1419     CD =  0.03202   =>   CDf =  0.00881    CDp =  0.02321

 Point added to stored polar  1
 Point written to save file  000158M0.1.log                                  
 Dump file unspecified or not available
 Calculating wake trajectory ...
 Calculating source influence matrix ...

 Solving BL system ...

 Side 1  free  transition at x/c =  0.2085   47
 Side 2  free  transition at x/c =  0.3602   39

   1   rms: 0.1375E+00   max: -.8650E+00   T at   39  2   RLX: 0.578
       a =  9.000      CL =  1.5026
      Cm = -0.1389     CD =  0.03360   =>   CDf =  0.00857    CDp =  0.02502

 Side 1  free  transition at x/c =  0.1989   47
 Side 2  free  transition at x/c =  0.3849   39

   2   rms: 0.5829E-01   max: 0.2826E+00   D at   39  2
       a =  9.000      CL =  1.5297
      Cm = -0.1364     CD =  0.03494   =>   CDf =  0.00887    CDp =  0.02607

 Side 1  free  transition at x/c =  0.1929   47
 Side 2  free  transition at x/c =  0.4023   40

   3   rms: 0.1791E-01   max: 0.2317E+00   D at   40  2
       a =  9.000      CL =  1.5290
      Cm = -0.1363     CD =  0.03496   =>   CDf =  0.00871    CDp =  0.02626

 Side 1  free  transition at x/c =  0.1928   47
 Side 2  free  transition at x/c =  0.4016   40

   4   rms: 0.2115E-02   max: 0.2356E-01   D at   41  2
       a =  9.000      CL =  1.5291
      Cm = -0.1363     CD =  0.03497   =>   CDf =  0.00872    CDp =  0.02625

 Side 1  free  transition at x/c =  0.1928   47
 Side 2  free  transition at x/c =  0.4008   40

   5   rms: 0.2660E-04   max: -.3305E-03   D at   42  2
       a =  9.000      CL =  1.5291
      Cm = -0.1363     CD =  0.03497   =>   CDf =  0.00872    CDp =  0.02625

 Point added to stored polar  1
 Point written to save file  000158M0.1.log                                  
 Dump file unspecified or not available
 Calculating wake trajectory ...
 Calculating source influence matrix ...

 Solving BL system ...

 Side 1  free  transition at x/c =  0.1928   47
 Side 2  free  transition at x/c =  0.4008   40

   1   rms: 0.1382E+00   max: -.9135E+00   T at   40  2   RLX: 0.547
       a = 10.000      CL =  1.5677
      Cm = -0.1336     CD =  0.03660   =>   CDf =  0.00847    CDp =  0.02814

 Side 1  free  transition at x/c =  0.1851   48
 Side 2  free  transition at x/c =  0.4307   41

   2   rms: 0.7545E-01   max: 0.4980E+00   D at   41  2
       a = 10.000      CL =  1.5981
      Cm = -0.1311     CD =  0.03814   =>   CDf =  0.00874    CDp =  0.02940

 Side 1  free  transition at x/c =  0.1797   47
 Side 2  free  transition at x/c =  0.4509   42

   3   rms: 0.3043E-01   max: -.2305E+00   D at   42  2
       a = 10.000      CL =  1.5926
      Cm = -0.1305     CD =  0.03826   =>   CDf =  0.00867    CDp =  0.02960

 Side 1  free  transition at x/c =  0.1799   47
 Side 2  free  transition at x/c =  0.4578   42

   4   rms: 0.4121E-02   max: -.1895E-01   D at   44  2
       a = 10.000      CL =  1.5958
      Cm = -0.1309     CD =  0.03810   =>   CDf =  0.00857    CDp =  0.02953

 Side 1  free  transition at x/c =  0.1796   47
 Side 2  free  transition at x/c =  0.4577   42

   5   rms: 0.8817E-04   max: -.7691E-03   D at   82  2
       a = 10.000      CL =  1.5959
      Cm = -0.1309     CD =  0.03812   =>   CDf =  0.00858    CDp =  0.02954

 Point added to stored polar  1
 Point written to save file  000158M0.1.log                                  
 Dump file unspecified or not available
 Calculating wake trajectory ...
 Calculating source influence matrix ...

 Solving BL system ...

 Side 1  free  transition at x/c =  0.1796   47
 Side 2  free  transition at x/c =  0.4577   42

   1   rms: 0.1414E+00   max: -.9217E+00   T at   42  2   RLX: 0.542
       a = 11.000      CL =  1.6322
      Cm = -0.1282     CD =  0.03989   =>   CDf =  0.00830    CDp =  0.03158

 Side 1  free  transition at x/c =  0.1724   48
 Side 2  free  transition at x/c =  0.5050   44

   2   rms: 0.1248E+00   max: -.1703E+01   C at   44  2   RLX: 0.294
       a = 11.000      CL =  1.6393
      Cm = -0.1273     CD =  0.04051   =>   CDf =  0.00850    CDp =  0.03200

 Side 1  free  transition at x/c =  0.1712   48
 Side 2  free  transition at x/c =  0.5173   45

   3   rms: 0.1282E+00   max: -.1643E+01   C at   45  2   RLX: 0.304
       a = 11.000      CL =  1.6466
      Cm = -0.1270     CD =  0.04077   =>   CDf =  0.00851    CDp =  0.03226

 Side 1  free  transition at x/c =  0.1703   48
 Side 2  free  transition at x/c =  0.5380   46

   4   rms: 0.1522E+00   max: -.2494E+01   C at   46  2   RLX: 0.200
       a = 11.000      CL =  1.6502
      Cm = -0.1270     CD =  0.04089   =>   CDf =  0.00849    CDp =  0.03240

 Side 1  free  transition at x/c =  0.1697   48
 Side 2  free  transition at x/c =  0.5516   46

   5   rms: 0.6377E-01   max: -.6132E+00   C at   46  2   RLX: 0.815
       a = 11.000      CL =  1.6604
      Cm = -0.1261     CD =  0.04129   =>   CDf =  0.00849    CDp =  0.03281

 Side 1  free  transition at x/c =  0.1681   47
 Side 2 forced transition at x/c =  1.0001   70

   6   rms: 0.2375E-01   max: 0.4372E+00   D at   46  2
       a = 11.000      CL =  1.6597
      Cm = -0.1256     CD =  0.04101   =>   CDf =  0.00809    CDp =  0.03292

 Side 1  free  transition at x/c =  0.1678   47
 Side 2 forced transition at x/c =  1.0001   70

   7   rms: 0.2721E-02   max: -.3774E-01   D at   46  2
       a = 11.000      CL =  1.6599
      Cm = -0.1256     CD =  0.04098   =>   CDf =  0.00806    CDp =  0.03292

 Side 1  free  transition at x/c =  0.1678   47
 Side 2 forced transition at x/c =  1.0001   70

   8   rms: 0.6349E-04   max: 0.4580E-03   D at   43  2
       a = 11.000      CL =  1.6599
      Cm = -0.1256     CD =  0.04098   =>   CDf =  0.00805    CDp =  0.03292

 Point added to stored polar  1
 Point written to save file  000158M0.1.log                                  
 Dump file unspecified or not available
 Calculating wake trajectory ...
 Calculating source influence matrix ...

 Solving BL system ...

 Side 1  free  transition at x/c =  0.1678   47
 Side 2 forced transition at x/c =  1.0001   70

   1   rms: 0.1565E+00   max: -.4512E+00   n at   53  2   RLX: 0.555
       a = 12.000      CL =  1.6940
      Cm = -0.1227     CD =  0.04309   =>   CDf =  0.00778    CDp =  0.03531

 Side 1  free  transition at x/c =  0.1622   48
 Side 2 forced transition at x/c =  1.0001   69

   2   rms: 0.5184E-01   max: 0.8049E-01   D at   82  2
       a = 12.000      CL =  1.7176
      Cm = -0.1201     CD =  0.04502   =>   CDf =  0.00796    CDp =  0.03706

 Side 1  free  transition at x/c =  0.1578   48
 Side 2 forced transition at x/c =  1.0001   69

   3   rms: 0.6898E-02   max: -.7768E-01   D at   48  1
       a = 12.000      CL =  1.7157
      Cm = -0.1199     CD =  0.04500   =>   CDf =  0.00794    CDp =  0.03707

 Side 1  free  transition at x/c =  0.1581   48
 Side 2 forced transition at x/c =  1.0001   69

   4   rms: 0.9403E-03   max: -.4049E-02   D at   80  1
       a = 12.000      CL =  1.7165
      Cm = -0.1200     CD =  0.04497   =>   CDf =  0.00792    CDp =  0.03705

 Side 1  free  transition at x/c =  0.1580   48
 Side 2 forced transition at x/c =  1.0001   69

   5   rms: 0.1391E-04   max: -.1834E-03   D at   82  2
       a = 12.000      CL =  1.7165
      Cm = -0.1200     CD =  0.04497   =>   CDf =  0.00793    CDp =  0.03705

 Point added to stored polar  1
 Point written to save file  000158M0.1.log                                  
 Dump file unspecified or not available
 Calculating wake trajectory ...
 Calculating source influence matrix ...

 Solving BL system ...

 Side 1  free  transition at x/c =  0.1580   48
 Side 2 forced transition at x/c =  1.0001   69

   1   rms: 0.1275E+00   max: 0.4487E+00   T at   48  1   RLX: 0.519
       a = 13.000      CL =  1.7467
      Cm = -0.1173     CD =  0.04718   =>   CDf =  0.00763    CDp =  0.03955

 Side 1  free  transition at x/c =  0.1541   48
 Side 2 forced transition at x/c =  1.0001   68

   2   rms: 0.5577E-01   max: -.2530E+00   C at   48  1
       a = 13.000      CL =  1.7692
      Cm = -0.1144     CD =  0.04955   =>   CDf =  0.00796    CDp =  0.04159

 Side 1  free  transition at x/c =  0.1494   48
 Side 2 forced transition at x/c =  1.0001   68

   3   rms: 0.5232E-02   max: -.3109E-01   D at   81  1
       a = 13.000      CL =  1.7707
      Cm = -0.1144     CD =  0.04928   =>   CDf =  0.00776    CDp =  0.04152

 Side 1  free  transition at x/c =  0.1493   48
 Side 2 forced transition at x/c =  1.0001   68

   4   rms: 0.5405E-03   max: -.3188E-02   D at   81  2
       a = 13.000      CL =  1.7712
      Cm = -0.1145     CD =  0.04929   =>   CDf =  0.00777    CDp =  0.04153

 Side 1  free  transition at x/c =  0.1493   48
 Side 2 forced transition at x/c =  1.0001   68

   5   rms: 0.1269E-04   max: -.1271E-03   D at   81  2
       a = 13.000      CL =  1.7712
      Cm = -0.1145     CD =  0.04930   =>   CDf =  0.00777    CDp =  0.04153

 Point added to stored polar  1
 Point written to save file  000158M0.1.log                                  
 Dump file unspecified or not available
 Calculating wake trajectory ...
 Calculating source influence matrix ...

 Solving BL system ...

 Side 1  free  transition at x/c =  0.1493   48
 Side 2 forced transition at x/c =  1.0001   68

   1   rms: 0.1164E+00   max: 0.3930E+00   T at   48  1   RLX: 0.484
       a = 14.000      CL =  1.7952
      Cm = -0.1119     CD =  0.05174   =>   CDf =  0.00745    CDp =  0.04429

 Side 1  free  transition at x/c =  0.1438   49
 Side 2 forced transition at x/c =  1.000Got result {'DD': 0.01438, 'Dmin': 0.01456, 'LL': -1.1633}
Completed successfully in 3.80 seconds. [{'DD': 0.01438, 'Dmin': 0.01456, 'LL': -1.1633}]
1   67

   2   rms: 0.5896E-01   max: -.3549E+00   D at   49  1
       a = 14.000      CL =  1.8150
      Cm = -0.1089     CD =  0.05450   =>   CDf =  0.00779    CDp =  0.04671

 Side 1  free  transition at x/c =  0.1406   48
 Side 2 forced transition at x/c =  1.0001   67

   3   rms: 0.8255E-02   max: -.7158E-01   C at   48  1
       a = 14.000      CL =  1.8128
      Cm = -0.1089     CD =  0.05468   =>   CDf =  0.00770    CDp =  0.04697

 Side 1  free  transition at x/c =  0.1398   48
 Side 2 forced transition at x/c =  1.0001   67

   4   rms: 0.1452E-02   max: -.7405E-02   D at   80  1
       a = 14.000      CL =  1.8140
      Cm = -0.1089     CD =  0.05459   =>   CDf =  0.00766    CDp =  0.04693

 Side 1  free  transition at x/c =  0.1398   48
 Side 2 forced transition at x/c =  1.0001   67

   5   rms: 0.4652E-04   max: -.5028E-03   D at   81  2
       a = 14.000      CL =  1.8140
      Cm = -0.1089     CD =  0.05460   =>   CDf =  0.00766    CDp =  0.04694

 Point added to stored polar  1
 Point written to save file  000158M0.1.log                                  
 Dump file unspecified or not available
 Calculating wake trajectory ...
 Calculating source influence matrix ...

 Solving BL system ...

 Side 1  free  transition at x/c =  0.1398   48
 Side 2 forced transition at x/c =  1.0001   67

   1   rms: 0.1117E+00   max: 0.4634E+00   T at   48  1   RLX: 0.445
       a = 15.000      CL =  1.8287
      Cm = -0.1066     CD =  0.05769   =>   CDf =  0.00731    CDp =  0.05038

 Side 1  free  transition at x/c =  0.1351   49
 Side 2 forced transition at x/c =  1.0001   66

   2   rms: 0.6096E-01   max: 0.2168E+00   T at   49  1
       a = 15.000      CL =  1.8460
      Cm = -0.1039     CD =  0.06146   =>   CDf =  0.00752    CDp =  0.05394

 Side 1  free  transition at x/c =  0.1308   49
 Side 2 forced transition at x/c =  1.0001   66

   3   rms: 0.6579E-02   max: -.4323E-01   D at   80  1
       a = 15.000      CL =  1.8470
      Cm = -0.1038     CD =  0.06090   =>   CDf =  0.00749    CDp =  0.05341

 Side 1  free  transition at x/c =  0.1307   49
 Side 2 forced transition at x/c =  1.0001   66

   4   rms: 0.9004E-03   max: -.4607E-02   D at   80  2
       a = 15.000      CL =  1.8478
      Cm = -0.1038     CD =  0.06093   =>   CDf =  0.00750    CDp =  0.05342

 Side 1  free  transition at x/c =  0.1307   49
 Side 2 forced transition at x/c =  1.0001   66

   5   rms: 0.2384E-04   max: -.2441E-03   D at   80  2
       a = 15.000      CL =  1.8478
      Cm = -0.1038     CD =  0.06094   =>   CDf =  0.00751    CDp =  0.05343

 Point added to stored polar  1
 Point written to save file  000158M0.1.log                                  
 Dump file unspecified or not available

.OPERva   c>  
 XFOIL   c>  
