Job launching after 0.29 seconds in submission.
Running python job.
Changed into dir /home/simonx/Documents/Udacity/Projects/capstone/PESM_NSGA2_CST_XFoil
Importing evaluationFunctionXFoil.py
Running evaluationFunctionXFoil.main()
0
1
2
0.04
resp: 
 ===================================================
  XFOIL Version 6.97
  Copyright (C) 2000   Mark Drela, Harold Youngren

  This software comes with ABSOLUTELY NO WARRANTY,
    subject to the GNU General Public License.

  Caveat computor
 ===================================================

 File  xfoil.def  not found

   QUIT    Exit program

  .OPER    Direct operating point(s)
  .MDES    Complex mapping design routine
  .QDES    Surface speed design routine
  .GDES    Geometry design routine

   SAVE f  Write airfoil to labeled coordinate file
   PSAV f  Write airfoil to plain coordinate file
   ISAV f  Write airfoil to ISES coordinate file
   MSAV f  Write airfoil to MSES coordinate file
   REVE    Reverse written-airfoil node ordering
   DELI i  Change written-airfoil file delimiters

   LOAD f  Read buffer airfoil from coordinate file
   NACA i  Set NACA 4,5-digit airfoil and buffer airfoil
   INTE    Set buffer airfoil by interpolating two airfoils
   NORM    Buffer airfoil normalization toggle
   HALF    Halve the number of points in buffer airfoil
   XYCM rr Change CM reference location, currently  0.25000 0.00000

   BEND    Display structural properties of current airfoil

   PCOP    Set current-airfoil panel nodes directly from buffer airfoil points
   PANE    Set current-airfoil panel nodes ( 160 ) based on curvature
  .PPAR    Show/change paneling

  .PLOP    Plotting options

   WDEF f  Write  current-settings file
   RDEF f  Reread current-settings file
   NAME s  Specify new airfoil name
   NINC    Increment name version number

   Z       Zoom    | (available in all menus)
   U       Unzoom  | 

 XFOIL   c>   ...............................................

  G raphics-enable flag:        T
  S ize of plot object          10.00"
  A spect ratio of plot object   0.5500
  P age dimensions              11.00 x  8.50"
  M argins from page edges       0.00",  0.00"
  F ont size (relative)          0.0150
  W indow/screen size fraction   0.8000
  B lowup input method:        Cursor    
  O rientation of plot:        Landscape 
  C olor PostScript output?     F

      Option, Value   (or <Return>)    c>   ...............................................

  G raphics-enable flag:        F
  S ize of plot object          10.00"
  A spect ratio of plot object   0.5500
  P age dimensions              11.00 x  8.50"
  M argins from page edges       0.00",  0.00"
  F ont size (relative)          0.0150
  W indow/screen size fraction   0.8000
  B lowup input method:        Cursor    
  O rientation of plot:        Landscape 
  C olor PostScript output?     F

      Option, Value   (or <Return>)    c>  
 XFOIL   c>  
 Labeled airfoil file.  Name:  000124                                          

 Number of input coordinate points: 200
 Clockwise ordering
 Max thickness =     0.099024  at x =   0.301
 Max camber    =     0.091060  at x =   0.422

  LE  x,y  =  -0.00000  -0.00003  |   Chord =   0.99988
  TE  x,y  =   0.99988   0.00002  |

 Current airfoil nodes set from buffer airfoil nodes ( 200 )

 XFOIL   c>  
 You are working with the buffer airfoil

.GDES   c>  
  i       x        y      angle
   2   0.9990   0.0001   -0.039
   3   0.9978   0.0003   -0.180
   4   0.9961   0.0006   -0.136
   5   0.9938   0.0009   -0.176
   6   0.9911   0.0013   -0.248
   7   0.9880   0.0018   -0.258
   8   0.9843   0.0024   -0.281
   9   0.9801   0.0031   -0.329
  10   0.9755   0.0039   -0.342
  11   0.9704   0.0048   -0.373
  12   0.9649   0.0059   -0.397
  13   0.9589   0.0071   -0.403
  14   0.9524   0.0084   -0.428
  15   0.9455   0.0098   -0.434
  16   0.9382   0.0114   -0.443
  17   0.9304   0.0132   -0.446
  18   0.9222   0.0151   -0.444
  19   0.9135   0.0172   -0.439
  20   0.9045   0.0194   -0.437
  21   0.8951   0.0218   -0.416
  22   0.8853   0.0244   -0.409
  23   0.8751   0.0272   -0.391
  24   0.8645   0.0302   -0.360
  25   0.8536   0.0333   -0.337
  26   0.8423   0.0367   -0.305
  27   0.8307   0.0401   -0.270
  28   0.8187   0.0438   -0.241
  29   0.8065   0.0476   -0.192
  30   0.7939   0.0515   -0.151
  31   0.7810   0.0556   -0.100
  32   0.7679   0.0597   -0.060
  33   0.7545   0.0640   -0.002
  34   0.7409   0.0684    0.052
  35   0.7270   0.0728    0.107
  36   0.7129   0.0772    0.170
  37   0.6986   0.0817    0.228
  38   0.6841   0.0862    0.295
  39   0.6694   0.0906    0.357
  40   0.6545   0.0950    0.424
  41   0.6395   0.0994    0.494
  42   0.6243   0.1036    0.562
  43   0.6091   0.1077    0.627
  44   0.5937   0.1116    0.703
  45   0.5782   0.1154    0.766
  46   0.5627   0.1189    0.841
  47   0.5471   0.1223    0.909
  48   0.5314   0.1254    0.970
  49   0.5157   0.1282    1.038
  50   0.5000   0.1307    1.102
  51   0.4843   0.1329    1.155
  52   0.4686   0.1348    1.212
  53   0.4529   0.1364    1.261
  54   0.4373   0.1376    1.307
  55   0.4218   0.1384    1.345
  56   0.4063   0.1389    1.378
  57   0.3909   0.1390    1.396
  58   0.3757   0.1388    1.421
  59   0.3605   0.1381    1.430
  60   0.3455   0.1371    1.430
  61   0.3306   0.1357    1.429
  62   0.3159   0.1340    1.410
  63   0.3014   0.1319    1.399
  64   0.2871   0.1295    1.367
  65   0.2730   0.1268    1.331
  66   0.2591   0.1238    1.299
  67   0.2455   0.1205    1.253
  68   0.2321   0.1170    1.198
  69   0.2190   0.1132    1.158
  70   0.2061   0.1093    1.095
  71   0.1935   0.1051    1.039
  72   0.1813   0.1009    0.989
  73   0.1693   0.0964    0.920
  74   0.1577   0.0919    0.866
  75   0.1464   0.0874    0.814
  76   0.1355   0.0828    0.752
  77   0.1249   0.0782    0.709
  78   0.1147   0.0735    0.659
  79   0.1049   0.0690    0.621
  80   0.0955   0.0645    0.584
  81   0.0865   0.0600    0.557
  82   0.0778   0.0557    0.543
  83   0.0696   0.0514    0.545
  84   0.0618   0.0473    0.552
  85   0.0545   0.0434    0.582
  86   0.0476   0.0395    0.660
  87   0.0411   0.0359    0.729
  88   0.0351   0.0323    0.859
  89   0.0296   0.0290    1.051
  90   0.0245   0.0258    1.285
  91   0.0199   0.0227    1.632
  92   0.0157   0.0198    2.081
  93   0.0120   0.0170    2.690
  94   0.0089   0.0143    3.543
  95   0.0062   0.0118    4.643
  96   0.0039   0.0093    6.100
  97   0.0022   0.0069    7.963
  98   0.0010   0.0046    9.950
  99   0.0002   0.0023   11.666
 100   0.0000   0.0000   12.184
 101   0.0002  -0.0024   11.698
 102   0.0010  -0.0047   10.959
 103   0.0022  -0.0069    9.971
 104   0.0039  -0.0091    8.849
 105   0.0062  -0.0111    7.767
 106   0.0089  -0.0130    6.806
 107   0.0120  -0.0147    5.933
 108   0.0157  -0.0162    5.192
 109   0.0199  -0.0174    4.557
 110   0.0245  -0.0184    3.989
 111   0.0296  -0.0192    3.509
 112   0.0351  -0.0196    3.091
 113   0.0411  -0.0198    2.697
 114   0.0476  -0.0197    2.368
 115   0.0545  -0.0193    2.069
 116   0.0618  -0.0186    1.795
 117   0.0696  -0.0176    1.540
 118   0.0778  -0.0163    1.316
 119   0.0865  -0.0148    1.105
 120   0.0955  -0.0130    0.910
 121   0.1049  -0.0110    0.735
 122   0.1147  -0.0087    0.572
 123   0.1249  -0.0063    0.407
 124   0.1355  -0.0037    0.265
 125   0.1464  -0.0010    0.137
 126   0.1577   0.0019    0.005
 127   0.1693   0.0049   -0.111
 128   0.1813   0.0079   -0.224
 129   0.1935   0.0109   -0.318
 130   0.2061   0.0139   -0.418
 131   0.2190   0.0169   -0.502
 132   0.2321   0.0199   -0.580
 133   0.2455   0.0227   -0.648
 134   0.2591   0.0255   -0.716
 135   0.2730   0.0281   -0.763
 136   0.2871   0.0306   -0.810
 137   0.3014   0.0329   -0.855
 138   0.3159   0.0350   -0.874
 139   0.3306   0.0369   -0.904
 140   0.3455   0.0386   -0.907
 141   0.3605   0.0401   -0.921
 142   0.3757   0.0413   -0.910
 143   0.3909   0.0424   -0.906
 144   0.4063   0.0431   -0.889
 145   0.4218   0.0437   -0.860
 146   0.4373   0.0440   -0.834
 147   0.4529   0.0440   -0.802
 148   0.4686   0.0439   -0.762
 149   0.4843   0.0435   -0.721
 150   0.5000   0.0430   -0.670
 151   0.5157   0.0423   -0.622
 152   0.5314   0.0414   -0.575
 153   0.5471   0.0403   -0.519
 154   0.5627   0.0391   -0.468
 155   0.5782   0.0378   -0.413
 156   0.5937   0.0364   -0.364
 157   0.6091   0.0348   -0.307
 158   0.6243   0.0332   -0.253
 159   0.6395   0.0316   -0.208
 160   0.6545   0.0299   -0.160
 161   0.6694   0.0282   -0.109
 162   0.6841   0.0265   -0.067
 163   0.6986   0.0248   -0.028
 164   0.7129   0.0231    0.016
 165   0.7270   0.0214    0.051
 166   0.7409   0.0198    0.083
 167   0.7545   0.0182    0.109
 168   0.7679   0.0167    0.142
 169   0.7810   0.0152    0.167
 170   0.7939   0.0138    0.183
 171   0.8065   0.0125    0.204
 172   0.8187   0.0112    0.214
 173   0.8307   0.0101    0.235
 174   0.8423   0.0090    0.238
 175   0.8536   0.0080    0.243
 176   0.8645   0.0070    0.250
 177   0.8751   0.0062    0.257
 178   0.8853   0.0054    0.249
 179   0.8951   0.0047    0.241
 180   0.9045   0.0041    0.253
 181   0.9135   0.0035    0.232
 182   0.9222   0.0030    0.231
 183   0.9304   0.0025    0.224
 184   0.9382   0.0021    0.216
 185   0.9455   0.0018    0.191
 186   0.9524   0.0015    0.196
 187   0.9589   0.0012    0.176
 188   0.9649   0.0010    0.161
 189   0.9704   0.0008    0.155
 190   0.9755   0.0006    0.135
 191   0.9801   0.0005    0.136
 192   0.9843   0.0004    0.091
 193   0.9880   0.0003    0.118
 194   0.9911   0.0002    0.072
 195   0.9938   0.0001    0.052
 196   0.9961   0.0001    0.080
 197   0.9978   0.0000    0.047
 198   0.9990   0.0000    0.032
 199   0.9998   0.0000   -0.076

 Maximum panel corner angle = 12.184   at  i,x,y  = 100   0.0000   0.0000

 Enter corner angle criterion for refinement (deg):   6.092
 Enter type of spline parameter (1=uniform, 2=arclength):   1
 Enter refinement x limits:  -0.10000   1.10000
 Number of points added:           22
 Max thickness =     0.099024  at x =   0.301
 Max camber    =     0.091044  at x =   0.422

 Maximum panel corner angle =  5.192   at  i,x,y  = 130   0.0157  -0.0162

.GDES   c>  
 Buffer airfoil is not identical to current airfoil

 XFOIL   c>  
 Blunt trailing edge.  Gap =  0.00025

 Paneling parameters used...
   Number of panel nodes       160
   Panel bunching parameter    1.000
   TE/LE panel density ratio   0.150
   Refined-area/LE panel density ratio    0.200
   Top    side refined area x/c limits  1.000 1.000
   Bottom side refined area x/c limits  1.000 1.000

 XFOIL   c>  
Enter output filename   s>  
 XFOIL   c>  
.OPERi   c>   Current iteration limit:          20

Enter new iteration limit   i>  
Enter new iteration limit   i>  
Enter new iteration limit   i>  
.OPERi   c>  
 M  =    0.0000
 Re =  0.3000E+06

.OPERv   c>  
 Sonic Cp =   -420.65      Sonic Q/Qinf =    22.825


.OPERv   c>  
 Polar  1 newly created for accumulation
 Airfoil archived with polar: 000124                                          

Enter  polar save filename  OR  <return> for no file   s>  
 New polar save file available

Enter  polar dump filename  OR  <return> for no file   s>  
 Polar dump file will NOT be written

 Polar accumulation enabled

.OPERva   c>   Calculating unit vorticity distributions ...
 Calculating wake trajectory ...
 Calculating source influence matrix ...

 Solving BL system ...

 Initializing BL ...
    side            1  ...
 MRCHUE: Inverse mode at  48     Hk =   4.113
 MRCHUE: Inverse mode at  49     Hk =   4.788
 MRCHUE: Inverse mode at  50     Hk =   5.448
 MRCHUE: Inverse mode at  51     Hk =   6.095
 MRCHUE: Inverse mode at  52     Hk =   6.734
 MRCHUE: Inverse mode at  53     Hk =   7.365
 MRCHUE: Inverse mode at  54     Hk =   7.992
 MRCHUE: Inverse mode at  55     Hk =   8.614
 MRCHUE: Inverse mode at  56     Hk =   9.234
 MRCHUE: Inverse mode at  57     Hk =   8.581
 MRCHUE: Inverse mode at  58     Hk =   6.060
 MRCHUE: Inverse mode at  59     Hk =   4.546
 MRCHUE: Inverse mode at  60     Hk =   3.454
 MRCHUE: Inverse mode at  61     Hk =   2.610
 MRCHUE: Convergence failed at  84  side 1    Res =  0.2288E+02
    side            2  ...
 MRCHUE: Inverse mode at  19     Hk =   4.799
 MRCHUE: Inverse mode at  20     Hk =   5.836
 MRCHUE: Inverse mode at  21     Hk =   6.835
 MRCHUE: Inverse mode at  22     Hk =   7.805
 MRCHUE: Inverse mode at  23     Hk =   8.747
 MRCHUE: Inverse mode at  24     Hk =   9.657
 MRCHUE: Inverse mode at  25     Hk =   6.895
 MRCHUE: Inverse mode at  26     Hk =   4.367
 MRCHUE: Inverse mode at  27     Hk =   2.858
 MRCHUE: Convergence failed at  78  side 2    Res =  0.3929E+02

 MRCHDU: Convergence failed at  84  side 1    Res =  0.3069E+02
 MRCHDU: Convergence failed at  78  side 2    Res =  0.5708E+00
 Side 1  free  transition at x/c =  0.5989   57
 Side 2  free  transition at x/c =  0.1761   25

   1   rms: 0.6647E+00   max: 0.4238E+01   C at  100  2   RLX: 0.354
       a =  2.000      CL =  0.9854
      Cm = -0.1603     CD =  0.00675   =>   CDf =  0.00742    CDp = -0.00067

 Side 1  free  transition at x/c =  0.5981   57
 Side 2  free  transition at x/c =  0.1757   25

   2   rms: 0.2674E+00   max: 0.1154E+01   D at   81  2
       a =  2.000      CL =  0.9456
      Cm = -0.1517     CD =  0.01372   =>   CDf =  0.00762    CDp =  0.00610

 Side 1  free  transition at x/c =  0.5917   57
 Side 2  free  transition at x/c =  0.1690   24

   3   rms: 0.3474E-01   max: 0.2403E+00   T at   24  2
       a =  2.000      CL =  0.9281
      Cm = -0.1484     CD =  0.01575   =>   CDf =  0.00792    CDp =  0.00783

 Side 1  free  transition at x/c =  0.5906   57
 Side 2  free  transition at x/c =  0.1645   24

   4   rms: 0.2574E-02   max: -.2414E-01   D at   25  2
       a =  2.000      CL =  0.9278
      Cm = -0.1484     CD =  0.01584   =>   CDf =  0.00794    CDp =  0.00790

 Side 1  free  transition at x/c =  0.5904   57
 Side 2  free  transition at x/c =  0.1643   24

   5   rms: 0.5320E-04   max: 0.4865E-03   D at   25  2
       a =  2.000      CL =  0.9278
      Cm = -0.1484     CD =  0.01584   =>   CDf =  0.00795    CDp =  0.00790

 Point added to stored polar  1
 Point written to save file  000124M0.04.log                                 
 Dump file unspecified or not available
 Calculating wake trajectory ...
 Calculating source influence matrix ...

 Solving BL system ...

 Side 1  free  transition at x/c =  0.5904   57
 Side 2  free  transition at x/c =  0.1643   24

   1   rms: 0.1720E+00   max: -.1268E+01   T at   24  2   RLX: 0.394
       a =  3.000      CL =  0.9720
      Cm = -0.1486     CD =  0.01593   =>   CDf =  0.00796    CDp =  0.00797

 Side 1  free  transition at x/c =  0.5881   56
 Side 2  free  transition at x/c =  0.1758   25

   2   rms: 0.1056E+00   max: -.7114E+00   T at   25  2   RLX: 0.703
       a =  3.000      CL =  1.0147
      Cm = -0.1486     CD =  0.01620   =>   CDf =  0.00790    CDp =  0.00830

 Side 1  free  transition at x/c =  0.5824   57
 Side 2  free  transition at x/c =  0.1849   24

   3   rms: 0.6752E-01   max: -.4300E+00   T at   24  2
       a =  3.000      CL =  1.0358
      Cm = -0.1487     CD =  0.01636   =>   CDf =  0.00782    CDp =  0.00853

 Side 1  free  transition at x/c =  0.5811   57
 Side 2  free  transition at x/c =  0.1963   25

   4   rms: 0.6149E-01   max: 0.8004E+00   D at   25  2
       a =  3.000      CL =  1.0350
      Cm = -0.1486     CD =  0.01614   =>   CDf =  0.00771    CDp =  0.00843

 Side 1  free  transition at x/c =  0.5811   57
 Side 2  free  transition at x/c =  0.1942   25

   5   rms: 0.1326E-01   max: 0.1126E+00   D at   25  2
       a =  3.000      CL =  1.0349
      Cm = -0.1486     CD =  0.01620   =>   CDf =  0.00775    CDp =  0.00845

 Side 1  free  transition at x/c =  0.5811   57
 Side 2  free  transition at x/c =  0.1923   25

   6   rms: 0.5521E-03   max: -.5133E-02   D at   28  2
       a =  3.000      CL =  1.0349
      Cm = -0.1486     CD =  0.01620   =>   CDf =  0.00776    CDp =  0.00844

 Side 1  free  transition at x/c =  0.5811   57
 Side 2  free  transition at x/c =  0.1923   25

   7   rms: 0.1695E-05   max: -.1177E-04   D at   28  2
       a =  3.000      CL =  1.0349
      Cm = -0.1486     CD =  0.01620   =>   CDf =  0.00776    CDp =  0.00844

 Point added to stored polar  1
 Point written to save file  000124M0.04.log                                 
 Dump file unspecified or not available
 Calculating wake trajectory ...
 Calculating source influence matrix ...

 Solving BL system ...

 Side 1  free  transition at x/c =  0.5811   57
 Side 2  free  transition at x/c =  0.1923   25

   1   rms: 0.1743E+00   max: -.1356E+01   T at   25  2   RLX: 0.369
       a =  4.000      CL =  1.0743
      Cm = -0.1487     CD =  0.01633   =>   CDf =  0.00777    CDp =  0.00857

 Side 1  free  transition at x/c =  0.5776   57
 Side 2  free  transition at x/c =  0.2023   26

   2   rms: 0.3491E+00   max: -.2418E+01   T at   26  2   RLX: 0.207
       a =  4.000      CL =  1.0892
      Cm = -0.1488     CD =  0.01630   =>   CDf =  0.00780    CDp =  0.00850

 Side 1  free  transition at x/c =  0.5768   57
 Side 2  free  transition at x/c =  0.2087   26

   3   rms: 0.1243E+00   max: -.8244E+00   T at   26  2   RLX: 0.606
       a =  4.000      CL =  1.1231
      Cm = -0.1490     CD =  0.01649   =>   CDf =  0.00760    CDp =  0.00889

 Side 1  free  transition at x/c =  0.5749   58
 Side 2  free  transition at x/c =  0.2195   26

   4   rms: 0.1018E+00   max: -.5928E+00   T at   26  2   RLX: 0.843
       a =  4.000      CL =  1.1419
      Cm = -0.1492     CD =  0.01621   =>   CDf =  0.00775    CDp =  0.00846

 Side 1  free  transition at x/c =  0.5739   58
 Side 2  free  transition at x/c =  0.2285   26

   5   rms: 0.3005E-01   max: -.1950E+00   D at   26  2
       a =  4.000      CL =  1.1455
      Cm = -0.1491     CD =  0.01643   =>   CDf =  0.00769    CDp =  0.00874

 Side 1  free  transition at x/c =  0.5737   58
 Side 2  free  transition at x/c =  0.2279   26

   6   rms: 0.1495E-02   max: 0.1405E-01   D at   27  2
       a =  4.000      CL =  1.1454
      Cm = -0.1491     CD =  0.01646   =>   CDf =  0.00767    CDp =  0.00878

 Side 1  free  transition at x/c =  0.5737   58
 Side 2  free  transition at x/c =  0.2276   26

   7   rms: 0.3434E-05   max: -.3371E-04   D at   26  2
       a =  4.000      CL =  1.1454
      Cm = -0.1491     CD =  0.01646   =>   CDf =  0.00767    CDp =  0.00878

 Point added to stored polar  1
 Point written to save file  000124M0.04.log                                 
 Dump file unspecified or not available
 Calculating wake trajectory ...
 Calculating source influence matrix ...

 Solving BL system ...

 Side 1  free  transition at x/c =  0.5737   58
 Side 2  free  transition at x/c =  0.2276   26

   1   rms: 0.1793E+00   max: -.1435E+01   T at   26  2   RLX: 0.348
       a =  5.000      CL =  1.1841
      Cm = -0.1494     CD =  0.01681   =>   CDf =  0.00768    CDp =  0.00913

 Side 1  free  transition at x/c =  0.5718   57
 Side 2  free  transition at x/c =  0.2442   27

   2   rms: 0.1130E+00   max: -.5860E+00   T at   27  2   RLX: 0.853
       a =  5.000      CL =  1.2346
      Cm = -0.1488     CD =  0.01738   =>   CDf =  0.00737    CDp =  0.01000

 Side 1  free  transition at x/c =  0.5637   58
 Side 2  free  transition at x/c =  0.2672   28

   3   rms: 0.2678E-01   max: 0.3175E+00   D at   28  2
       a =  5.000      CL =  1.2474
      Cm = -0.1489     CD =  0.01717   =>   CDf =  0.00724    CDp =  0.00992

 Side 1  free  transition at x/c =  0.5637   58
 Side 2  free  transition at x/c =  0.2717   28

   4   rms: 0.3433E-02   max: -.5296E-01   D at   29  2
       a =  5.000      CL =  1.2475
      Cm = -0.1489     CD =  0.01718   =>   CDf =  0.00719    CDp =  0.00999

 Side 1  free  transition at x/c =  0.5638   58
 Side 2  free  transition at x/c =  0.2723   28

   5   rms: 0.3414E-04   max: -.4750E-03   D at   28  2
       a =  5.000      CL =  1.2475
      Cm = -0.1489     CD =  0.01718   =>   CDf =  0.00719    CDp =  0.00999

 Point added to stored polar  1
 Point written to save file  000124M0.04.log                                 
 Dump file unspecified or not available
 Calculating wake trajectory ...
 Calculating source influence matrix ...

 Solving BL system ...

 Side 1  free  transition at x/c =  0.5638   58
 Side 2  free  transition at x/c =  0.2723   28

   1   rms: 0.1829E+00   max: -.1461E+01   T at   28  2   RLX: 0.342
       a =  6.000      CL =  1.2846
      Cm = -0.1490     CD =  0.01716   =>   CDf =  0.00720    CDp =  0.00996

 Side 1  free  transition at x/c =  0.5551   57
 Side 2  free  transition at x/c =  0.2930   30

   2   rms: 0.1846E+00   max: -.1046E+01   T at   30  2   RLX: 0.478
       a =  6.000      CL =  1.3115
      Cm = -0.1476     CD =  0.01713   =>   CDf =  0.00703    CDp =  0.01010

 Side 1  free  transition at x/c =  0.5458   58
 Side 2  free  transition at x/c =  0.3158   30

   3   rms: 0.1174E+00   max: -.6508E+00   T at   30  2   RLX: 0.768
       a =  6.000      CL =  1.3488
      Cm = -0.1482     CD =  0.01584   =>   CDf =  0.00705    CDp =  0.00879

 Side 1  free  transition at x/c =  0.5449   58
 Side 2  free  transition at x/c =  0.3383   32

   4   rms: 0.6455E-01   max: -.5164E+00   C at   32  2   RLX: 0.968
       a =  6.000      CL =  1.3580
      Cm = -0.1485     CD =  0.01556   =>   CDf =  0.00702    CDp =  0.00854

 Side 1  free  transition at x/c =  0.5420   57
 Side 2  free  transition at x/c =  0.3585   33

   5   rms: 0.1438E-01   max: -.1468E+00   C at   33  2
       a =  6.000      CL =  1.3541
      Cm = -0.1481     CD =  0.01595   =>   CDf =  0.00696    CDp =  0.00899

 Side 1  free  transition at x/c =  0.5409   57
 Side 2  free  transition at x/c =  0.3592   33

   6   rms: 0.1234E-02   max: 0.1725E-01   C at   33  2
       a =  6.000      CL =  1.3543
      Cm = -0.1481     CD =  0.01594   =>   CDf =  0.00692    CDp =  0.00903

 Side 1  free  transition at x/c =  0.5408   57
 Side 2  free  transition at x/c =  0.3588   33

   7   rms: 0.1075E-04   max: -.1024E-03   D at   35  2
       a =  6.000      CL =  1.3543
      Cm = -0.1481     CD =  0.01594   =>   CDf =  0.00692    CDp =  0.00903

 Point added to stored polar  1
 Point written to save file  000124M0.04.log                                 
 Dump file unspecified or not available
 Calculating wake trajectory ...
 Calculating source influence matrix ...

 Solving BL system ...

 Side 1  free  transition at x/c =  0.5408   57
 Side 2  free  transition at x/c =  0.3588   33

   1   rms: 0.2871E+00   max: -.3703E+01   C at   33  2   RLX: 0.135
       a =  7.000      CL =  1.3653
      Cm = -0.1477     CD =  0.01590   =>   CDf =  0.00692    CDp =  0.00898

 Side 1  free  transition at x/c =  0.5356   57
 Side 2  free  transition at x/c =  0.3789   34

   2   rms: 0.3258E+00   max: -.4876E+01   C at   34  2   RLX: 0.103
       a =  7.000      CL =  1.3740
      Cm = -0.1473     CD =  0.01584   =>   CDf =  0.00685    CDp =  0.00899

 Side 1  free  transition at x/c =  0.5328   57
 Side 2  free  transition at x/c =  0.3964   35

   3   rms: 0.2167E+00   max: -.1884E+01   T at   35  2   RLX: 0.265
       a =  7.000      CL =  1.3974
      Cm = -0.1473     CD =  0.01551   =>   CDf =  0.00669    CDp =  0.00883

 Side 1  free  transition at x/c =  0.5276   57
 Side 2 forced transition at x/c =  1.0001   73

   4   rms: 0.1499E+00   max: -.7330E+00   C at   57  1   RLX: 0.682
       a =  7.000      CL =  1.4311
      Cm = -0.1469     CD =  0.01507   =>   CDf =  0.00609    CDp =  0.00899

 Side 1  free  transition at x/c =  0.5039   56
 Side 2 forced transition at x/c =  1.0001   73

   5   rms: 0.6544E-01   max: -.5068E+00   D at   57  1   RLX: 0.987
       a =  7.000      CL =  1.4557
      Cm = -0.1475     CD =  0.01454   =>   CDf =  0.00618    CDp =  0.00836

 Side 1  free  transition at x/c =  0.4968   55
 Side 2 forced transition at x/c =  1.0001   73

   6   rms: 0.1352E-01   max: -.1118E+00   D at   57  1
       a =  7.000      CL =  1.4538
      Cm = -0.1473     CD =  0.01480   =>   CDf =  0.00597    CDp =  0.00883

 Side 1  free  transition at x/c =  0.4875   55
 Side 2 forced transition at x/c =  1.0001   73

   7   rms: 0.4711E-02   max: -.5489E-01   D at   55  1
       a =  7.000      CL =  1.4540
      Cm = -0.1472     CD =  0.01474   =>   CDf =  0.00605    CDp =  0.00869

 Side 1  free  transition at x/c =  0.4881   55
 Side 2 forced transition at x/c =  1.0001   73

   8   rms: 0.3051E-03   max: -.3904E-02   D at   57  1
       a =  7.000      CL =  1.4540
      Cm = -0.1472     CD =  0.01475   =>   CDf =  0.00601    CDp =  0.00874

 Side 1  free  transition at x/c =  0.4880   55
 Side 2 forced transition at x/c =  1.0001   73

   9   rms: 0.6195E-05   max: -.3100E-04   D at   57  1
       a =  7.000      CL =  1.4540
      Cm = -0.1472     CD =  0.01475   =>   CDf =  0.00601    CDp =  0.00873

 Point added to stored polar  1
 Point written to save file  000124M0.04.log                                 
 Dump file unspecified or not available
 Calculating wake trajectory ...
 Calculating source influence matrix ...

 Solving BL system ...

 Side 1  free  transition at x/c =  0.4880   55
 Side 2 forced transition at x/c =  1.0001   73

   1   rms: 0.3008E+00   max: -.2223E+01   D at   56  1   RLX: 0.225
       a =  8.000      CL =  1.4666
      Cm = -0.1453     CD =  0.01491   =>   CDf =  0.00589    CDp =  0.00903

 Side 1  free  transition at x/c =  0.4480   53
 Side 2 forced transition at x/c =  1.0001   72

   2   rms: 0.3424E+00   max: 0.2517E+01   C at   53  1   RLX: 0.254
       a =  8.000      CL =  1.4614
      Cm = -0.1424     CD =  0.01639   =>   CDf =  0.00616    CDp =  0.01023

 MRCHDU: Convergence failed at  74  side 1    Res =  0.1777E+01
 MRCHDU: Convergence failed at  75  side 1    Res =  0.1625E+01
 MRCHDU: Convergence failed at  76  side 1    Res =  0.1399E+01
 MRCHDU: Convergence failed at  77  side 1    Res =  0.1308E+01
 MRCHDU: Convergence failed at  78  side 1    Res =  0.1716E+01
 MRCHDU: Convergence failed at  79  side 1    Res =  0.2215E+01
 MRCHDU: Convergence failed at  80  side 1    Res =  0.3026E+01
 MRCHDU: Convergence failed at  81  side 1    Res =  0.4478E+01
 MRCHDU: Convergence failed at  82  side 1    Res =  0.7174E+01
 MRCHDU: Convergence failed at  83  side 1    Res =  0.1689E+02
 MRCHDU: Convergence failed at  84  side 1    Res =  0.7989E+02
 MRCHDU: Convergence failed at  85  side 1    Res =  0.4243E+02
 MRCHDU: Convergence failed at  86  side 1    Res =  0.1970E+02
 MRCHDU: Convergence failed at  87  side 1    Res =  0.1461E+02
 MRCHDU: Convergence failed at  88  side 1    Res =  0.1289E+02
 MRCHDU: Convergence failed at  89  side 1    Res =  0.1231E+02
 MRCHDU: Convergence failed at  90  side 1    Res =  0.1051E+02
 Side 1  free  transition at x/c =  0.0664   26
 Side 2 forced transition at x/c =  1.0001   72

   3   rms: 0.5484E+00   max: 0.8683E+01   C at   26  1   RLX: 0.173
       a =  8.000      CL =  1.5237
      Cm = -0.1848     CD =  0.01512   =>   CDf =  0.00878    CDp =  0.00634

 Side 1  free  transition at x/c =  0.0537   25
 Side 2 forced transition at x/c =  1.0001   72

   4   rms: 0.4570E+00   max: 0.3802E+01   C at   25  1   RLX: 0.334
       a =  8.000      CL =  1.5357
      Cm = -0.1747     CD =  0.01738   =>   CDf =  0.00908    CDp =  0.00830

 Side 1  free  transition at x/c =  0.0408   23
 Side 2 forced transition at x/c =  1.0001   72

   5   rms: 0.2807E+00   max: 0.1214E+01   D at   74  2   RLX: 0.485
       a =  8.000      CL =  1.4800
      Cm = -0.1609     CD =  0.02281   =>   CDf =  0.00879    CDp =  0.01402

 Side 1  free  transition at x/c =  0.0429   24
 Side 2 forced transition at x/c =  1.0001   72

   6   rms: 0.3127E+00   max: 0.1220E+01   D at   85  1   RLX: 0.517
       a =  8.000      CL =  1.3942
      Cm = -0.1485     CD =  0.02787   =>   CDf =  0.00877    CDp =  0.01910

 Side 1  free  transition at x/c =  0.0620   24
 Side 2 forced transition at x/c =  1.0001   73

   7   rms: 0.1746E+00   max: -.1223E+01   T at   24  1   RLX: 0.409
       a =  8.000      CL =  1.3477
      Cm = -0.1389     CD =  0.03186   =>   CDf =  0.00841    CDp =  0.02345

 Side 1  free  transition at x/c =  0.0880   26
 Side 2 forced transition at x/c =  1.0001   73

   8   rms: 0.1113E+00   max: -.1276E+01   T at   26  1   RLX: 0.392
       a =  8.000      CL =  1.3290
      Cm = -0.1332     CD =  0.03183   =>   CDf =  0.00817    CDp =  0.02366

 MRCHDU: Convergence failed at  55  side 1    Res =  0.2816E+01
 MRCHDU: Convergence failed at  56  side 1    Res =  0.1288E+02
 MRCHDU: Convergence failed at  57  side 1    Res =  0.1190E+02
 MRCHDU: Convergence failed at  58  side 1    Res =  0.1055E+02
 MRCHDU: Convergence failed at  59  side 1    Res =  0.9090E+01
 MRCHDU: Convergence failed at  60  side 1    Res =  0.7517E+01
 MRCHDU: Convergence failed at  61  side 1    Res =  0.6062E+01
 MRCHDU: Convergence failed at  62  side 1    Res =  0.4790E+01
 MRCHDU: Convergence failed at  63  side 1    Res =  0.5707E+01
 MRCHDU: Convergence failed at  64  side 1    Res =  0.9120E+01
 MRCHDU: Convergence failed at  65  side 1    Res =  0.2828E+02
 MRCHDU: Convergence failed at  66  side 1    Res =  0.1754E+02
 MRCHDU: Convergence failed at  67  side 1    Res =  0.5982E+01
 MRCHDU: Convergence failed at  68  side 1    Res =  0.1200E+02
 MRCHDU: Convergence failed at  69  side 1    Res =  0.3311E+02
 MRCHDU: Convergence failed at  70  side 1    Res =  0.2372E+02
 MRCHDU: Convergence failed at  71  side 1    Res =  0.8123E+01
 MRCHDU: Convergence failed at  72  side 1    Res =  0.7831E+01
 MRCHDU: Convergence failed at  73  side 1    Res =  0.1092E+02
 MRCHDU: Convergence failed at  74  side 1    Res =  0.1556E+02
 MRCHDU: Convergence failed at  75  side 1    Res =  0.2533E+02
 MRCHDU: Convergence failed at  76  side 1    Res =  0.5093E+02
 MRCHDU: Convergence failed at  77  side 1    Res =  0.4283E+03
 MRCHDU: Convergence failed at  78  side 1    Res =  0.6570E+02
 MRCHDU: Convergence failed at  79  side 1    Res =  0.3176E+02
 MRCHDU: Convergence failed at  80  side 1    Res =  0.2224E+02
 MRCHDU: Convergence failed at  81  side 1    Res =  0.1817E+02
 MRCHDU: Convergence failed at  82  side 1    Res =  0.1622E+02
 MRCHDU: Convergence failed at  83  side 1    Res =  0.1545E+02
 MRCHDU: Convergence failed at  84  side 1    Res =  0.1560E+02
 MRCHDU: Convergence failed at  85  side 1    Res =  0.1676E+02
 MRCHDU: Convergence failed at  86  side 1    Res =  0.1956E+02
 MRCHDU: Convergence failed at  87  side 1    Res =  0.2221E+02
 MRCHDU: Convergence failed at  88  side 1    Res =  0.3217E+02
 MRCHDU: Convergence failed at  89  side 1    Res =  0.3968E+02
 Side 1  free  transition at x/c =  0.4907   55
 Side 2 forced transition at x/c =  1.0001   73

   9   rms: 0.7903E+00   max: 0.1859E+01   D at   74  2   RLX: 0.362
       a =  8.000      CL =  1.7615
      Cm = -0.3157     CD =  0.00628   =>   CDf =  0.00470    CDp =  0.00159

 Side 1  free  transition at x/c =  0.3578   47
 Side 2 forced transition at x/c =  1.0001   72

  10   rms: 0.7714E+01   max: 0.1578E+03   C at   47  1   RLX: 0.010
       a =  8.000      CL =  1.7507
      Cm = -0.3080     CD =  0.00820   =>   CDf =  0.00931    CDp = -0.00111

 Side 1  free  transition at x/c =  0.0862   27
 Side 2 forced transition at x/c =  1.0001   72

  11   rms: 0.4388E+01   max: 0.9953E+02   C at   27  1   RLX: 0.015
       a =  8.000      CL =  1.7453
      Cm = -0.3055     CD =  0.00958   =>   CDf =  0.01103    CDp = -0.00145

 Side 1  free  transition at x/c =  0.0758   26
 Side 2 forced transition at x/c =  1.0001   72

  12   rms: 0.9484E+00   max: 0.1846E+02   C at   26  1   RLX: 0.081
       a =  8.000      CL =  1.7321
      Cm = -0.2918     CD =  0.01008   =>   CDf =  0.01109    CDp = -0.00101

 Side 1  free  transition at x/c =  0.0544   25
 Side 2 forced transition at x/c =  1.0001   72

  13   rms: 0.4771E+00   max: -.2780E+01   D at   25  1   RLX: 0.180
       a =  8.000      CL =  1.7029
      Cm = -0.2649     CD =  0.01127   =>   CDf =  0.01094    CDp =  0.00033

 Side 1  free  transition at x/c =  0.0464   24
 Side 2 forced transition at x/c =  1.0001   72

  14   rms: 0.3494E+00   max: 0.1051E+01   D at   73  2   RLX: 0.451
       a =  8.000      CL =  1.6412
      Cm = -0.2113     CD =  0.01424   =>   CDf =  0.01043    CDp =  0.00381

 Side 1  free  transition at x/c =  0.0393   23
 Side 2 forced transition at x/c =  1.0001   72

  15   rms: 0.2782E+00   max: 0.1015E+01   D at   74  2   RLX: 0.640
       a =  8.000      CL =  1.5111
      Cm = -0.1620     CD =  0.02101   =>   CDf =  0.00948    CDp =  0.01153

 Side 1  free  transition at x/c =  0.0417   24
 Side 2 forced transition at x/c =  1.0001   72

  16   rms: 0.2365E+00   max: 0.8718E+00   D at   84  1   RLX: 0.646
       a =  8.000      CL =  1.4258
      Cm = -0.1459     CD =  0.02479   =>   CDf =  0.00894    CDp =  0.01585

 MRCHDU: Convergence failed at  25  side 1    Res =  0.9253E+01
 Side 1  free  transition at x/c =  0.0584   25
 Side 2 forced transition at x/c =  1.0001   72

  17   rms: 0.2249E+00   max: -.8687E+00   T at   25  1   RLX: 0.576
       a =  8.000      CL =  1.3607
      Cm = -0.1387     CD =  0.03076   =>   CDf =  0.00862    CDp =  0.02214

 MRCHDU: Convergence failed at  53  side 1    Res =  0.1955E+01
 MRCHDU: Convergence failed at  54  side 1    Res =  0.5493E+01
 MRCHDU: Convergence failed at  55  side 1    Res =  0.5379E+01
 MRCHDU: Convergence failed at  56  side 1    Res =  0.5425E+01
 MRCHDU: Convergence failed at  57  side 1    Res =  0.5460E+01
 MRCHDU: Convergence failed at  58  side 1    Res =  0.5581E+01
 MRCHDU: Convergence failed at  59  side 1    Res =  0.5543E+01
 MRCHDU: Convergence failed at  60  side 1    Res =  0.5384E+01
 MRCHDU: Convergence failed at  61  side 1    Res =  0.5065E+01
 MRCHDU: Convergence failed at  62  side 1    Res =  0.4574E+01
 MRCHDU: Convergence failed at  63  side 1    Res =  0.4021E+01
 MRCHDU: Convergence failed at  64  side 1    Res =  0.6472E+01
 MRCHDU: Convergence failed at  65  side 1    Res =  0.1113E+02
 MRCHDU: Convergence failed at  66  side 1    Res =  0.4054E+02
 MRCHDU: Convergence failed at  67  side 1    Res =  0.1631E+02
 MRCHDU: Convergence failed at  68  side 1    Res =  0.6283E+01
 MRCHDU: Convergence failed at  69  side 1    Res =  0.1231E+02
 MRCHDU: Convergence failed at  70  side 1    Res =  0.2546E+02
 MRCHDU: Convergence failed at  71  side 1    Res =  0.2608E+03
 MRCHDU: Convergence failed at  72  side 1    Res =  0.1310E+02
 MRCHDU: Convergence failed at  73  side 1    Res =  0.5765E+01
 MRCHDU: Convergence failed at  74  side 1    Res =  0.8859E+01
 MRCHDU: Convergence failed at  75  side 1    Res =  0.1158E+02
 MRCHDU: Convergence failed at  76  side 1    Res =  0.1511E+02
 MRCHDU: Convergence failed at  77  side 1    Res =  0.2157E+02
 MRCHDU: Convergence failed at  78  side 1    Res =  0.3513E+02
 MRCHDU: Convergence failed at  79  side 1    Res =  0.7462E+02
 MRCHDU: Convergence failed at  80  side 1    Res =  0.1192E+04
 MRCHDU: Convergence failed at  81  side 1    Res =  0.1077E+03
 MRCHDU: Convergence failed at  82  side 1    Res =  0.5913E+02
 MRCHDU: Convergence failed at  83  side 1    Res =  0.4679E+02
 MRCHDU: Convergence failed at  84  side 1    Res =  0.4244E+02
 MRCHDU: Convergence failed at  85  side 1    Res =  0.4570E+02
 MRCHDU: Convergence failed at  86  side 1    Res =  0.4804E+02
 MRCHDU: Convergence failed at  87  side 1    Res =  0.8767E+02
 MRCHDU: Convergence failed at  88  side 1    Res =  0.3157E+03
 MRCHDU: Convergence failed at  89  side 1    Res =  0.5947E+02
 Side 1  free  transition at x/c =  0.4640   53
 Side 2 forced transition at x/c =  1.0001   73

  18   rms: 0.7430E+00   max: 0.1740E+01   D at   74  2   RLX: 0.567
       a =  8.000      CL =  1.7289
      Cm = -0.2665     CD =  0.00640   =>   CDf =  0.00478    CDp =  0.00162

 Side 1  free  transition at x/c =  0.0839   27
 Side 2 forced transition at x/c =  1.0001   72

  19   rms: 0.1184E+01   max: 0.2467E+02   C at   27  1   RLX: 0.061
       a =  8.000      CL =  1.7111
      Cm = -0.2521     CD =  0.01204   =>   CDf =  0.01025    CDp =  0.00179

 Side 1  free  transition at x/c =  0.0566   25
 Side 2 forced transition at x/c =  1.0001   72

  20   rms: 0.5412E+00   max: 0.7106E+01   C at   25  1   RLX: 0.200
       a =  8.000      CL =  1.6781
      Cm = -0.2304     CD =  0.01372   =>   CDf =  0.01035    CDp =  0.00337

 Side 1  free  transition at x/c =  0.0451   24
 Side 2 forced transition at x/c =  1.0001   72

  21   rms: 0.2921E+00   max: 0.1153E+01   D at   90  1   RLX: 0.722
       a =  8.000      CL =  1.5604
      Cm = -0.1674     CD =  0.01913   =>   CDf =  0.00989    CDp =  0.00924

 MRCHDU: Convergence failed at  24  side 1    Res =  0.1346E+01
 MRCHDU: Convergence failed at  25  side 1    Res =  0.2573E+01
 MRCHDU: Convergence failed at  78  side 1    Res =  0.2200E+01
 MRCHDU: Convergence failed at  79  side 1    Res =  0.1904E+01
 MRCHDU: Convergence failed at  80  side 1    Res =  0.1957E+01
 MRCHDU: Convergence failed at  81  side 1    Res =  0.2178E+01
 MRCHDU: Convergence failed at  82  side 1    Res =  0.2447E+01
 MRCHDU: Convergence failed at  83  side 1    Res =  0.2747E+01
 MRCHDU: Convergence failed at  84  side 1    Res =  0.3054E+01
 MRCHDU: Convergence failed at  85  side 1    Res =  0.3347E+01
 MRCHDU: Convergence failed at  86  side 1    Res =  0.3660E+01
 MRCHDU: Convergence failed at  87  side 1    Res =  0.3860E+01
 MRCHDU: Convergence failed at  88  side 1    Res =  0.4022E+01
 MRCHDU: Convergence failed at  89  side 1    Res =  0.4176E+01
 MRCHDU: Convergence failed at  90  side 1    Res =  0.4548E+01
 Side 1  free  transition at x/c =  0.0390   23
 Side 2 forced transition at x/c =  1.0001   72

  22   rms: 0.2735E+00   max: 0.1124E+01   D at   77  2   RLX: 0.836
       a =  8.000      CL =  1.5088
      Cm = -0.1569     CD =  0.02122   =>   CDf =  0.00873    CDp =  0.01249

 Side 1  free  transition at x/c =  0.0392   23
 Side 2 forced transition at x/c =  1.0001   72

  23   rms: 0.4481E+00   max: 0.1709E+01   D at   85  1   RLX: 0.323
       a =  8.000      CL =  1.4389
      Cm = -0.1575     CD =  0.02696   =>   CDf =  0.00874    CDp =  0.01822

 Side 1  free  transition at x/c =  0.0477   24
 Side 2 forced transition at x/c =  1.0001   72

  24   rms: 0.1806E+00   max: -.1135E+01   C at   24  1   RLX: 0.440
       a =  8.000      CL =  1.3693
      Cm = -0.1413     CD =  0.03066   =>   CDf =  0.00871    CDp =  0.02195

 Side 1  free  transition at x/c =  0.0601   24
 Side 2 forced transition at x/c =  1.0001   73

  25   rms: 0.1632E+00   max: -.3275E+01   C at   24  1   RLX: 0.153
       a =  8.000      CL =  1.3603
      Cm = -0.1403     CD =  0.03100   =>   CDf =  0.00838    CDp =  0.02262
 VISCAL:  Convergence failed
 Calculating wake trajectory ...
 Calculating source influence matrix ...

 Solving BL system ...

 Side 1  free  transition at x/c =  0.0625   24
 Side 2 forced transition at x/c =  1.0001   73

   1   rms: 0.1883E+00   max: -.9798E+00   C at   24  1   RLX: 0.510
       a =  9.000      CL =  1.3340
      Cm = -0.1316     CD =  0.03787   =>   CDf =  0.00840    CDp =  0.02947

 Side 1  free  transition at x/c =  0.0573   24
 Side 2 forced transition at x/c =  1.0001   73

   2   rms: 0.9908E-01   max: 0.4497E+00   D at   65  1
       a =  9.000      CL =  1.2906
      Cm = -0.1204     CD =  0.04607   =>   CDf =  0.00801    CDp =  0.03805

 Side 1  free  transition at x/c =  0.0525   25
 Side 2 forced transition at x/c =  1.0001   72

   3   rms: 0.1494E-01   max: 0.1318E+00   D at   64  1
       a =  9.000      CL =  1.2853
      Cm = -0.1200     CD =  0.04596   =>   CDf =  0.00798    CDp =  0.03798

 Side 1  free  transition at x/c =  0.0529   25
 Side 2 forced transition at x/c =  1.0001   72

   4   rms: 0.1290E-02   max: -.1463E-01   D at    4  1
       a =  9.000      CL =  1.2852
      Cm = -0.1199     CD =  0.04582   =>   CDf =  0.00796    CDp =  0.03786

 Side 1  free  transition at x/c =  0.0529   25
 Side 2 forced transition at x/c =  1.0001   72

   5   rms: 0.1539E-04   max: -.3419E-03   D at    2  1
       a =  9.000      CL =  1.2852
      Cm = -0.1199     CD =  0.04582   =>   CDf =  0.00796    CDp =  0.03786

 Point added to stored polar  1
 Point written to save file  000124M0.04.log                                 
 Dump file unspecified or not available
 Calculating wake trajectory ...
 Calculating source influence matrix ...

 Solving BL system ...

 Side 1  free  transition at x/c =  0.0529   25
 Side 2 forced transition at x/c =  1.0001   72

   1   rms: 0.2099E+00   max: 0.1224E+01   C at   25  1   RLX: 0.704
       a = 10.000      CL =  1.2708
      Cm = -0.1165     CD =  0.05722   =>   CDf =  0.00797    CDp =  0.04925

 Side 1  free  transition at x/c =  0.0405   23
 Side 2 forced transition at x/c =  1.0001   72

   2   rms: 0.1442E+00   max: -.1607E+01   D at   25  1   RLX: 0.311
       a = 10.000      CL =  1.2691
      Cm = -0.1256     CD =  0.05851   =>   CDf =  0.00782    CDp =  0.05069

 MRCHDU: Convergence failed at  24  side 1    Res =  0.4936E+01
 MRCHDU: Convergence failed at  25  side 1    Res =  0.1110E+02
 MRCHDU: Convergence failed at  26  side 1    Res =  0.1214E+03
 MRCHDU: Convergence failed at  27  side 1    Res =  0.8713E+01
 MRCHDU: Convergence failed at  28  side 1    Res =  0.5307E+01
 MRCHDU: Convergence failed at  29  side 1    Res =  0.3374E+01
 MRCHDU: Convergence failed at  30  side 1    Res =  0.2596E+01
 MRCHDU: Convergence failed at  31  side 1    Res =  0.2362E+01
 MRCHDU: Convergence failed at  32  side 1    Res =  0.2398E+01
 Side 1  free  transition at x/c =  0.0442   24
 Side 2 forced transition at x/c =  1.0001   72

   3   rms: 0.1987E+00   max: 0.1548E+01   T at   24  1   RLX: 0.571
       a = 10.000      CL =  1.3187
      Cm = -0.1064     CD =  0.05237   =>   CDf =  0.00617    CDp =  0.04620

 Side 1  free  transition at x/c =  0.0365   23
 Side 2 forced transition at x/c =  1.0001   72

   4   rms: 0.7917E-01   max: -.5298E+00   D at   23  1   RLX: 0.944
       a = 10.000      CL =  1.2793
      Cm = -0.1171     CD =  0.05950   =>   CDf =  0.00786    CDp =  0.05164

 Side 1  free  transition at x/c =  0.0386   23
 Side 2 forced transition at x/c =  1.0001   72

   5   rms: 0.1027E-01   max: -.6507E-01   D at   62  1
       a = 10.000      CL =  1.2815
      Cm = -0.1155     CD =  0.05787   =>   CDf =  0.00766    CDp =  0.05021

 Side 1  free  transition at x/c =  0.0380   23
 Side 2 forced transition at x/c =  1.0001   72

   6   rms: 0.1152E-02   max: -.5114E-02   D at   85  2
       a = 10.000      CL =  1.2822
      Cm = -0.1156     CD =  0.05799   =>   CDf =  0.00768    CDp =  0.05031

 Side 1  free  transition at x/c =  0.0379   23
 Side 2 forced transition at x/c =  1.0001   72

   7   rms: 0.4934E-04   max: -.4243E-03   D at   84  2
       a = 10.000      CL =  1.2822
      Cm = -0.1156     CD =  0.05800   =>   CDf =  0.00768    CDp =  0.05032

 Point added to stored polar  1
 Point written to save file  000124M0.04.log                                 
 Dump file unspecified or not available
 Calculating wake trajectory ...
 Calculating source influence matrix ...

 Solving BL system ...

 Side 1  free  transition at x/c =  0.0379   23
 Side 2 forced transition at x/c =  1.0001   72

   1   rms: 0.1375E+00   max: 0.7899E+00   T at   23  1   RLX: 0.704
       a = 11.000      CL =  1.2942
      Cm = -0.1137     CD =  0.06658   =>   CDf =  0.00770    CDp =  0.05889

 Side 1  free  transition at x/c =  0.0325   23
 Side 2 forced transition at x/c =  1.0001   72

   2   rms: 0.5332E-01   max: 0.2789E+00   D at   59  1
       a = 11.000      CL =  1.2719
      Cm = -0.1119     CD =  0.07275   =>   CDf =  0.00760    CDp =  0.06514

 Side 1  free  transition at x/c =  0.0318   22
 Side 2 forced transition at x/c =  1.0001   72

   3   rms: 0.8869E-02   max: -.9861E-01   D at   22  1
       a = 11.000      CL =  1.2741
      Cm = -0.1117     CD =  0.07131   =>   CDf =  0.00746    CDp =  0.06385

 Side 1  free  transition at x/c =  0.0318   22
 Side 2 forced transition at x/c =  1.0001   72

   4   rms: 0.7824E-03   max: 0.3703E-02   D at   23  1
       a = 11.000      CL =  1.2745
      Cm = -0.1117     CD =  0.07119   =>   CDf =  0.00746    CDp =  0.06373

 Side 1  free  transition at x/c =  0.0317   22
 Side 2 forced transition at x/c =  1.0001   72

   5   rms: 0.5791E-04   max: -.3392E-03   D at   85  2
       a = 11.000      CL =  1.2746
      Cm = -0.1117     CD =  0.07120   =>   CDf =  0.00746    CDp =  0.06374

 Point added to stored polar  1
 Point written to save file  000124M0.04.log                                 
 Dump file unspecified or not available
 Calculating wake trajectory ...
 Calculating source influence matrix ...

 Solving BL system ...

 Side 1  free  transition at x/c =  0.0317   22
 Side 2 forced transition at x/c =  1.0001   72

   1   rms: 0.1246E+00   max: 0.6938E+00   T at   22  1   RLX: 0.610
       a = 12.000      CL =  1.2926
      Cm = -0.1104     CD =  0.07789   =>   CDf =  0.00726    CDp =  0.07062

 Side 1  free  transition at x/c =  0.0289   23
 Side 2 forced transition at x/c =  1.0001   71

   2   rms: 0.4374E-01   max: 0.2725E+00   T at   23  1
       a = 12.000      CL =  1.3009
      Cm = -0.1088     CD =  0.08096   =>   CDf =  0.00734    CDp =  0.07361

 Side 1  free  transition at x/c =  0.0267   23
 Side 2 forced transition at x/c =  1.0001   71

   3   rms: 0.1388E-01   max: -.1027E+00   D at   23  1
       a = 12.000      CL =  1.2954
      Cm = -0.1087     CD =  0.08095   =>   CDf =  0.00733    CDp =  0.07362

 Side 1  free  transition at x/c =  0.0270   23
 Side 2 forced transition at x/c =  1.0001   71

   4   rms: 0.2325E-02   max: -.1314E-01   D at   58  1
       a = 12.000      CL =  1.2965
      Cm = -0.1086     CD =  0.08063   =>   CDf =  0.00730    CDp =  0.07332

 Side 1  free  transition at x/c =  0.0269   23
 Side 2 forced transition at x/c =  1.0001   71

   5   rms: 0.3302E-03   max: -.1700E-02   D at   85  2
       a = 12.000      CL =  1.2968
      Cm = -0.1086     CD =  0.08067   =>   CDf =  0.00731    CDp =  0.07336

 Side 1  free  transition at x/c =  0.0269   23
 Side 2 forced transition at x/c =  1.0001   71

   6   rms: 0.1410E-04   max: -.1315E-03   D at   85  2
       a = 12.000      CL =  1.2968
      Cm = -0.1086     CD =  0.08068   =>   CDf =  0.00731    CDp =  0.07337

 Point added to stored polar  1
 Point written to save file  000124M0.04.log                                 
 Dump file unspecified or not available
 Calculating wake trajectory ...
 Calculating source influence matrix ...

 Solving BL system ...

 Side 1  free  transition at x/c =  0.0269   23
 Side 2 forced transition at x/c =  1.0001   71

   1   rms: 0.1279E+00   max: 0.8397E+00   T at   23  1   RLX: 0.550
       a = 13.000      CL =  1.3144
      Cm = -0.1070     CD =  0.08587   =>   CDf =  0.00709    CDp =  0.07878

 Side 1  free  transition at x/c =  0.0251   23
 Side 2 forced transition at x/c =  1.0001   70

   2   rms: 0.1136E+02   max: -.2026E+03   T at    2  1   RLX: 0.002
       a = 13.000      CL =  1.3105
      Cm = -0.1038     CD =  0.08443   =>   CDf =  0.00752    CDp =  0.07690

 Side 1  free  transition at x/c =  0.0251   22
 Side 2 forced transition at x/c =  1.0001   71

   3   rms: 0.8313E+00   max: 0.1468E+02   D at    2  2   RLX: 0.080
       a = 13.000      CL =  1.3129
      Cm = -0.1038     CD =  0.08450   =>   CDf =  0.00707    CDp =  0.07743

 Side 1  free  transition at x/c =  0.0250   23
 Side 2 forced transition at x/c =  1.0001   70

   4   rms: 0.1691E+00   max: 0.2773E+01   T at    2  1   RLX: 0.380
       a = 13.000      CL =  1.3241
      Cm = -0.1035     CD =  0.08475   =>   CDf =  0.00730    CDp =  0.07745

 Side 1  free  transition at x/c =  0.0246   23
 Side 2 forced transition at x/c =  1.0001   70

   5   rms: 0.3971E-01   max: 0.2027E+00   T at   23  1
       a = 13.000      CL =  1.3459
      Cm = -0.1024     CD =  0.08407   =>   CDf =  0.00727    CDp =  0.07680

 Side 1  free  transition at x/c =  0.0239   23
 Side 2 forced transition at x/c =  1.0001   70

   6   rms: 0.3621E-02   max: 0.3552E-01   D at   23  1
       a = 13.000      CL =  1.3468
      Cm = -0.1024     CD =  0.08428   =>   CDf =  0.00725    CDp =  0.07702

 Side 1  free  transition at x/c =  0.0238   23
 Side 2 forced transition at x/c =  1.0001   70

   7   rms: 0.3002E-03   max: -.2450E-02   D at   85  2
       a = 13.000      CL =  1.3470
      Cm = -0.1024     CD =  0.08439   =>   CDf =  0.00725    CDp =  0.07714

 Side 1  free  transition at x/c =  0.0238   23
 Side 2 forced transition at x/c =  1.0001   70

   8   rms: 0.2957E-04   max: -.2035E-03   C at   70  2
       a = 13.000      CL =  1.3469
      Cm = -0.1024     CD =  0.08439   =>   CDf =  0.00725    CDp =  0.07714

 Point added to stored polar  1
 Point written to save file  000124M0.04.log                                 
 Dump file unspecified or not available
 Calculating wake trajectory ...
 Calculating source influence matrix ...

 Solving BL system ...

 Side 1  free  transition at x/c =  0.0238   23
 Side 2 forced transition at x/c =  1.0001   70

   1   rms: 0.1652E+00   max: -.1266E+00   T at   85  2   RLX: 0.543
       a = 14.000      CL =  1.3924
      Cm = -0.0981     CD =  0.08346   =>   CDf =  0.00726    CDp =  0.07620

 Side 1  free  transition at x/c =  0.0220   23
 Side 2 forced transition at x/c =  1.0001   70

   2   rms: 0.5434E-01   max: 0.3570E+00   T at   23  1
       a = 14.000      CL =  1.4164
      Cm = -0.0967     CD =  0.08608   =>   CDf =  0.00686    CDp =  0.07922

 Side 1  free  transition at x/c =  0.0207   24
 Side 2 forced transition at x/c =  1.0001   69

   3   rms: 0.1343E-01   max: -.6641E-01   D at   63  1
       a = 14.000      CL =  1.4182
      Cm = -0.0963     CD =  0.08532   =>   CDf =  0.00710    CDp =  0.07822

 Side 1  free  transition at x/c =  0.0206   24
 Side 2 forced transition at x/c =  1.0001   69

   4   rms: 0.4055E-02   max: -.1285E-01   D at   84  2
       a = 14.000      CL =  1.4211
      Cm = -0.0963     CD =  0.08534   =>   CDf =  0.00714    CDp =  0.07820

 Side 1  free  transition at x/c =  0.0206   24
 Side 2 forced transition at x/c =  1.0001   69

   5   rms: 0.2937E-03   max: -.2324E-02   D at   85  2
       a = 14.000      CL =  1.4213
      Cm = -0.0963     CD =  0.08543   =>   CDf =  0.00715    CDp =  0.07828

 Side 1  free  transition at x/c =  0.0206   24
 Side 2 forced transition at x/c =  1.0001   69

   6   rms: 0.1843E-04   max: 0.2814E-03   C at   69  2
       a = 14.000      CL =  1.4213
      Cm = -0.0963     CD =  0.08543   =>   CDf =  0.00715    CDp =  0.07829

 Point added to stored polar  1
 Point written to save file  000124M0.04.log                                 
 Dump file unspecified or not available
 Calculating wake trajectory ...
 Calculating source influence matrix ...

 Solving BL system ...

 Side 1  free  transition at x/c =  0.0206   24
 Side 2 forced transition at x/c =  1.0001   69

   1   rms: 0.2047E+00   max: 0.7668E+00   T at   24  1   RLX: 0.539
       a = 15.000      CL =  1.4826
      Cm = -0.0910     CD =  0.08192   =>   CDf =  0.00716    CDp =  0.07476

 Side 1  free  transition at x/c =  0.0198   24
 Side 2 forced transition at x/c =  1.0001   69

   2   rms: 0.2454E+00   max: 0.7813E+00   T at   65  1
       a = 15.000      CL =  1.6400
      Cm = -0.0811     CD =  0.06890   =>   CDf =  0.00672    CDp =  0.06218

 MRCHDU: Convergence failed at  26  side 1    Res =  0.8097E+02
 MRCHDU: Convergence failed at  27  side 1    Res =  0.4997E+02
 MRCHDU: Convergence failed at  28  side 1    Res =  0.1549E+03
 MRCHDU: Convergence failed at  29  side 1    Res =  0.7224E+02
 MRCHDU: Convergence failed at  30  side 1    Res =  0.2250E+03
 MRCHDU: Convergence failed at  31  side 1    Res =  0.6702E+02
 MRCHDU: Convergence failed at  32  side 1    Res =  0.2969E+03
 MRCHDU: Convergence failed at  33  side 1    Res =  0.7899E+02
 MRCHDU: Convergence failed at  34  side 1    Res =  0.9543E+02
 MRCHDU: Convergence failed at  35  side 1    Res =  0.2802E+03
 MRCHDU: Convergence failed at  36  side 1    Res =  0.7245E+03
 MRCHDU: Convergence failed at  37  side 1    Res =  0.5952E+02
 MRCHDU: Convergence failed at  38  side 1    Res =  0.3846E+04
 MRCHDU: Convergence failed at  39  side 1    Res =  0.3753E+04
 MRCHDU: Convergence failed at  40  side 1    Res =  0.8594E+02
 MRCHDU: Convergence failed at  41  side 1    Res =  0.1009E+03
 MRCHDU: Convergence failed at  42  side 1    Res =  0.2821E+03
 MRCHDU: Convergence failed at  43  side 1    Res =  0.6790E+02
 MRCHDU: Convergence failed at  44  side 1    Res =  0.6851E+02
 MRCHDU: Convergence failed at  45  side 1    Res =  0.6876E+02
 MRCHDU: Convergence failed at  46  side 1    Res =  0.3126E+03
 MRCHDU: Convergence failed at  47  side 1    Res =  0.3322E+03
 MRCHDU: Convergence failed at  48  side 1    Res =  0.7511E+02
 MRCHDU: Convergence failed at  49  side 1    Res =  0.7561E+02
 MRCHDU: Convergence failed at  50  side 1    Res =  0.7700E+02
 MRCHDU: Convergence failed at  51  side 1    Res =  0.5559E+03
 MRCHDU: Convergence failed at  52  side 1    Res =  0.2131E+03
 MRCHDU: Convergence failed at  53  side 1    Res =  0.1038E+03
 MRCHDU: Convergence failed at  54  side 1    Res =  0.1181E+03
 MRCHDU: Convergence failed at  55  side 1    Res =  0.1321E+03
 MRCHDU: Convergence failed at  56  side 1    Res =  0.1795E+03
 MRCHDU: Convergence failed at  57  side 1    Res =  0.1099E+03
 MRCHDU: Convergence failed at  58  side 1    Res =  0.1065E+03
 MRCHDU: Convergence failed at  59  side 1    Res =  0.3971E+03
 MRCHDU: Convergence failed at  60  side 1    Res =  0.2819E+03
 MRCHDU: Convergence failed at  61  side 1    Res =  0.4628E+03
 MRCHDU: Convergence failed at  62  side 1    Res =  0.2509E+03
 MRCHDU: Convergence failed at  63  side 1    Res =  0.1200E+04
 MRCHDU: Convergence failed at  64  side 1    Res =  0.1816E+03
 MRCHDU: Convergence failed at  65  side 1    Res =  0.1829E+04
 MRCHDU: Convergence failed at  66  side 1    Res =  0.4650E+03
 MRCHDU: Convergence failed at  67  side 1    Res =  0.5418E+03
 MRCHDU: Convergence failed at  68  side 1    Res =  0.6260E+03
 MRCHDU: Convergence failed at  69  side 1    Res =  0.6582E+03
 MRCHDU: Convergence failed at  70  side 1    Res =  0.6742E+03
 MRCHDU: Convergence failed at  71  side 1    Res =  0.6831E+03
 MRCHDU: Convergence failed at  72  side 1    Res =  0.6845E+03
 MRCHDU: Convergence failed at  73  side 1    Res =  0.6919E+03
 MRCHDU: Convergence failed at  74  side 1    Res =  0.6950E+03
 MRCHDU: Convergence failed at  75  side 1    Res =  0.7069E+03
 MRCHDU: Convergence failed at  76  side 1    Res =  0.7198E+03
 MRCHDU: Convergence failed at  77  side 1    Res =  0.7375E+03
 MRCHDU: Convergence failed at  78  side 1    Res =  0.7497E+03
 MRCHDU: Convergence failed at  79  side 1    Res =  0.7486E+03
 MRCHDU: Convergence failed at  80  side 1    Res =  0.7510E+03
 MRCHDU: Convergence failed at  81  side 1    Res =  0.7479E+03
 MRCHDU: Convergence failed at  82  side 1    Res =  0.7411E+03
 MRCHDU: Convergence failed at  83  side 1    Res =  0.7283E+03
 MRCHDU: Convergence failed at  84  side 1    Res =  0.7199E+03
 MRCHDU: Convergence failed at  85  side 1    Res =  0.7081E+03
 MRCHDU: Convergence failed at  86  side 1    Res =  0.6951E+03
 MRCHDU: Convergence failed at  87  side 1    Res =  0.6810E+03
 MRCHDU: Convergence failed at  88  side 1    Res =  0.6652E+03
 MRCHDU: Convergence failed at  89  side 1    Res =  0.6459E+03
 MRCHDU: Convergence failed at  90  side 1    Res =  0.6163E+03
 MRCHDU: Convergence failed at  91  side 1    Res =  0.5792E+03
 MRCHDU: Convergence failed at  92  side 1    Res =  0.5267E+03
 MRCHDU: Convergence failed at  93  side 1    Res =  0.4655E+03
 MRCHDU: Convergence failed at  94  side 1    Res =  0.3934E+03
 MRCHDU: Convergence failed at  75  side 2    Res =  0.1513E+01
 MRCHDU: Convergence failed at  76  side 2    Res =  0.3292E+01
 MRCHDU: Convergence failed at  77  side 2    Res =  0.1509E+01
 MRCHDU: Convergence failed at  78  side 2    Res =  0.1366E+03
 MRCHDU: Convergence failed at  79  side 2    Res =  0.3987E+01
 MRCHDU: Convergence failed at  80  side 2    Res =  0.8063E+01
 MRCHDU: Convergence failed at  81  side 2    Res =  0.3348E+01
 MRCHDU: Convergence failed at  82  side 2    Res =  0.5029E+01
 MRCHDU: Convergence failed at  83  side 2    Res =  0.1196E+02
 MRCHDU: Convergence failed at  84  side 2    Res =  0.2646E+02
 MRCHDU: Convergence failed at  85  side 2    Res =  0.7840E+01
 MRCHDU: Convergence failed at  86  side 2    Res =  0.2868E+01
 Side 1  free  transition at x/c =  0.0248   25
 Side 2 forced transition at x/c =  1.0001   68

   3   rms: 0.2953E+01   max: 0.2105E+02   D at   73  2   RLX: 0.071
       a = 15.000      CL =  4.8948
      Cm = -1.1953     CD =  0.00912   =>   CDf =  0.00104    CDp =  0.00808

 MRCHDU: Convergence failed at  73  side 2    Res =  0.6683E+01
 MRCHDU: Convergence failed at  74  side 2    Res =  0.6061E+01
 MRCHDU: Convergence failed at  75  side 2    Res =  0.1249E+02
 Side 1  free  transition at x/c =  0.0270   26
 Side 2 forced transition at x/c =  1.0001   68

   4   rms: 0.2073E+01   max: 0.1897E+02   T at   26  1   RLX: 0.079
       a = 15.000      CL =  4.1005
      Cm = -0.9294     CD =  0.15055   =>   CDf =  0.00206    CDp =  0.14848

 MRCHDU: Convergence failed at  81  side 2    Res =  0.9681E+00
 MRCHDU: Convergence failed at  82  side 2    Res =  0.1432E+01
 MRCHDU: Convergence failed at  83  side 2    Res =  0.3285E+01
 MRCHDU: Convergence failed at  84  side 2    Res =  0.9881E+01
 MRCHDU: Convergence failed at  85  side 2    Res =  0.2490E+01
 MRCHDU: Convergence failed at  87  side 2    Res =  0.2716E+01
 MRCHDU: Convergence failed at  88  side 2    Res =  0.1749E+01
 Side 1  free  transition at x/c =  0.0238   25
 Side 2 forced transition at x/c =  1.0001   68

   5   rms: 0.2995E+01   max: 0.1468E+02   D at   90  2   RLX: 0.044
       a = 15.000      CL =  3.8871
      Cm = -0.8812     CD =  0.19052   =>   CDf =  0.00224    CDp =  0.18827

 Side 1  free  transition at x/c =  0.0232   25
 Side 2 forced transition at x/c =  1.0001   68

   6   rms: 0.2119E+01   max: -.4336E+01   T at   85  2   RLX: 0.115
       a = 15.000      CL =  3.3623
      Cm = -0.7588     CD =  0.18965   =>   CDf =  0.00251    CDp =  0.18714

 Side 1  free  transition at x/c =  0.0212   24
 Side 2 forced transition at x/c =  1.0001   69

   7   rms: 0.1609E+01   max: -.4281E+01   T at   90  2   RLX: 0.117
       a = 15.000      CL =  2.9109
      Cm = -0.6465     CD =  0.24786   =>   CDf =  0.00231    CDp =  0.24555

 Side 1  free  transition at x/c =  0.0217   24
 Side 2 forced transition at x/c =  1.0001   69

   8   rms: 0.1720E+01   max: -.4352E+01   T at   91  2   RLX: 0.115
       a = 15.000      CL =  2.6264
      Cm = -0.5807     CD =  0.41153   =>   CDf =  0.00260    CDp =  0.40893

 Side 1  free  transition at x/c =  0.0241   23
 Side 2 forced transition at x/c =  1.0001   70

   9   rms: 0.1295E+01   max: -.4137E+01   T at   92  1   RLX: 0.121
       a = 15.000      CL =  2.2618
      Cm = -0.4897     CD =  0.92227   =>   CDf =  0.00244    CDp =  0.91983

 Side 1  free  transition at x/c =  0.0248   23
 Side 2 forced transition at x/c =  1.0001   70

  10   rms: 0.8983E+00   max: 0.2750E+01   C at   70  2   RLX: 0.243
       a = 15.000      CL =  1.8260
      Cm = -0.3789     CD =  1.50660   =>   CDf =  0.00266    CDp =  1.50394

 Side 1  free  transition at x/c =  0.0264   23
 Side 2 forced transition at x/c =  1.0001   71

  11   rms: 0.1039E+02   max: -.7963E+02   C at   91  1   RLX: 0.006
       a = 15.000      CL =  1.8022
      Cm = -0.3676     CD =  0.86510   =>   CDf =  0.00253    CDp =  0.86256

 Side 1  free  transition at x/c =  0.0265   23
 Side 2 forced transition at x/c =  1.0001   71

  12   rms: 0.1106E+02   max: 0.9771E+02   C at   91  1   RLX: 0.015
       a = 15.000      CL =  1.7809
      Cm = -0.3626     CD =  0.88558   =>   CDf =  0.00254    CDp =  0.88305

 Side 1  free  transition at x/c =  0.0267   23
 Side 2 forced transition at x/c =  1.0001   71

  13   rms: 0.1674E+02   max: 0.1080E+03   C at   91  1   RLX: 0.014
       a = 15.000      CL =  1.7613
      Cm = -0.3579     CD =  0.91972   =>   CDf =  0.00254    CDp =  0.91718

 Side 1  free  transition at x/c =  0.0269   23
 Side 2 forced transition at x/c =  1.0001   71

  14   rms: 0.9345E+00   max: 0.4219E+01   C at   73  2   RLX: 0.189
       a = 15.000      CL =  1.5203
      Cm = -0.3008     CD =  1.07409   =>   CDf =  0.00270    CDp =  1.07139

 Side 1  free  transition at x/c =  0.0302   22
 Side 2 forced transition at x/c =  1.0001   72

  15   rms: 0.1772E+01   max: -.1068E+02   D at    2  2   RLX: 0.047
       a = 15.000      CL =  1.4707
      Cm = -0.2878     CD =  1.31683   =>   CDf =  0.00257    CDp =  1.31426

 Side 1  free  transition at x/c =  0.0309   22
 Side 2 forced transition at x/c =  1.0001   72

  16   rms: 0.2449E+01   max: 0.1403E+02   C at   74  2   RLX: 0.107
       a = 15.000      CL =  1.3734
      Cm = -0.2626     CD =  1.08618   =>   CDf =  0.00257    CDp =  1.08361

 Side 1  free  transition at x/c =  0.0314   22
 Side 2 forced transition at x/c =  1.0001   72

  17   rms: 0.9267E+01   max: 0.6274E+02   C at   74  2   RLX: 0.024
       a = 15.000      CL =  1.3639
      Cm = -0.2584     CD =  0.65441   =>   CDf =  0.00258    CDp =  0.65183

 Side 1  free  transition at x/c =  0.0314   22
 Side 2 forced transition at x/c =  1.0001   72

  18   rms: 0.4559E+01   max: -.2454E+02   C at   86  2   RLX: 0.020
       a = 15.000      CL =  1.3486
      Cm = -0.2540     CD =  0.55833   =>   CDf =  0.00258    CDp =  0.55575

 Side 1  free  transition at x/c =  0.0315   22
 Side 2 forced transition at x/c =  1.0001   72

  19   rms: 0.8395E+01   max: -.4947E+02   C at   86  2   RLX: 0.010
       a = 15.000      CL =  1.3410
      Cm = -0.2518     CD =  0.57328   =>   CDf =  0.00258    CDp =  0.57070

 Side 1  free  transition at x/c =  0.0315   22
 Side 2 forced transition at x/c =  1.0001   72

  20   rms: 0.3888E+02   max: -.2294E+03   C at   85  2   RLX: 0.002
       a = 15.000      CL =  1.3393
      Cm = -0.2512     CD =  0.57656   =>   CDf =  0.00258    CDp =  0.57398

 Side 1  free  transition at x/c =  0.0315   22
 Side 2 forced transition at x/c =  1.0001   72

  21   rms: 0.1207E+03   max: -.7172E+03   C at   85  2   RLX: 0.001
       a = 15.000      CL =  1.3388
      Cm = -0.2511     CD =  0.57593   =>   CDf =  0.00258    CDp =  0.57335

 Side 1  free  transition at x/c =  0.0315   22
 Side 2 forced transition at x/c =  1.0001   72

  22   rms: 0.1291E+03   max: -.7659E+03   C at   86  2   RLX: 0.001
       a = 15.000      CL =  1.3384
      Cm = -0.2509     CD =  0.57516   =>   CDf =  0.00258    CDp =  0.57258

 Side 1  free  transition at x/c =  0.0315   22
 Side 2 forced transition at x/c =  1.0001   72

  23   rms: 0.1404E+03   max: 0.8331E+03   C at   74  2   RLX: 0.002
       a = 15.000      CL =  1.3370
      Cm = -0.2506     CD =  0.57565   =>   CDf =  0.00258    CDp =  0.57307

 Side 1  free  transition at x/c =  0.0315   22
 Side 2 forced transition at x/c =  1.0001   72

  24   rms: 0.7418E+02   max: 0.4402E+03   C at   74  2   RLX: 0.003
       a = 15.000      CL =  1.3342
      Cm = -0.2498     CD =  0.57829   =>   CDf =  0.00258    CDp =  0.57571

 Side 1  free  transition at x/c =  0.0316   22
 Side 2 forced transition at x/c =  1.0001   72

  25   rms: 0.6631E+01   max: -.3423E+02   C at   90  1   RLX: 0.015
       a = 15.000      CL =  1.3237
      Cm = -0.2469     CD =  0.58720   =>   CDf =  0.00258    CDp =  0.58461
 VISCAL:  Convergence failed

.OPERva   c>  
 XFOIL   c>  
0.1
resp: 
 ===================================================
  XFOIL Version 6.97
  Copyright (C) 2000   Mark Drela, Harold Youngren

  This software comes with ABSOLUTELY NO WARRANTY,
    subject to the GNU General Public License.

  Caveat computor
 ===================================================

 File  xfoil.def  not found

   QUIT    Exit program

  .OPER    Direct operating point(s)
  .MDES    Complex mapping design routine
  .QDES    Surface speed design routine
  .GDES    Geometry design routine

   SAVE f  Write airfoil to labeled coordinate file
   PSAV f  Write airfoil to plain coordinate file
   ISAV f  Write airfoil to ISES coordinate file
   MSAV f  Write airfoil to MSES coordinate file
   REVE    Reverse written-airfoil node ordering
   DELI i  Change written-airfoil file delimiters

   LOAD f  Read buffer airfoil from coordinate file
   NACA i  Set NACA 4,5-digit airfoil and buffer airfoil
   INTE    Set buffer airfoil by interpolating two airfoils
   NORM    Buffer airfoil normalization toggle
   HALF    Halve the number of points in buffer airfoil
   XYCM rr Change CM reference location, currently  0.25000 0.00000

   BEND    Display structural properties of current airfoil

   PCOP    Set current-airfoil panel nodes directly from buffer airfoil points
   PANE    Set current-airfoil panel nodes ( 160 ) based on curvature
  .PPAR    Show/change paneling

  .PLOP    Plotting options

   WDEF f  Write  current-settings file
   RDEF f  Reread current-settings file
   NAME s  Specify new airfoil name
   NINC    Increment name version number

   Z       Zoom    | (available in all menus)
   U       Unzoom  | 

 XFOIL   c>   ...............................................

  G raphics-enable flag:        T
  S ize of plot object          10.00"
  A spect ratio of plot object   0.5500
  P age dimensions              11.00 x  8.50"
  M argins from page edges       0.00",  0.00"
  F ont size (relative)          0.0150
  W indow/screen size fraction   0.8000
  B lowup input method:        Cursor    
  O rientation of plot:        Landscape 
  C olor PostScript output?     F

      Option, Value   (or <Return>)    c>   ...............................................

  G raphics-enable flag:        F
  S ize of plot object          10.00"
  A spect ratio of plot object   0.5500
  P age dimensions              11.00 x  8.50"
  M argins from page edges       0.00",  0.00"
  F ont size (relative)          0.0150
  W indow/screen size fraction   0.8000
  B lowup input method:        Cursor    
  O rientation of plot:        Landscape 
  C olor PostScript output?     F

      Option, Value   (or <Return>)    c>  
 XFOIL   c>  
 Labeled airfoil file.  Name:  000124                                          

 Number of input coordinate points: 200
 Clockwise ordering
 Max thickness =     0.099024  at x =   0.301
 Max camber    =     0.091060  at x =   0.422

  LE  x,y  =  -0.00000  -0.00003  |   Chord =   0.99988
  TE  x,y  =   0.99988   0.00002  |

 Current airfoil nodes set from buffer airfoil nodes ( 200 )

 XFOIL   c>  
 You are working with the buffer airfoil

.GDES   c>  
  i       x        y      angle
   2   0.9990   0.0001   -0.039
   3   0.9978   0.0003   -0.180
   4   0.9961   0.0006   -0.136
   5   0.9938   0.0009   -0.176
   6   0.9911   0.0013   -0.248
   7   0.9880   0.0018   -0.258
   8   0.9843   0.0024   -0.281
   9   0.9801   0.0031   -0.329
  10   0.9755   0.0039   -0.342
  11   0.9704   0.0048   -0.373
  12   0.9649   0.0059   -0.397
  13   0.9589   0.0071   -0.403
  14   0.9524   0.0084   -0.428
  15   0.9455   0.0098   -0.434
  16   0.9382   0.0114   -0.443
  17   0.9304   0.0132   -0.446
  18   0.9222   0.0151   -0.444
  19   0.9135   0.0172   -0.439
  20   0.9045   0.0194   -0.437
  21   0.8951   0.0218   -0.416
  22   0.8853   0.0244   -0.409
  23   0.8751   0.0272   -0.391
  24   0.8645   0.0302   -0.360
  25   0.8536   0.0333   -0.337
  26   0.8423   0.0367   -0.305
  27   0.8307   0.0401   -0.270
  28   0.8187   0.0438   -0.241
  29   0.8065   0.0476   -0.192
  30   0.7939   0.0515   -0.151
  31   0.7810   0.0556   -0.100
  32   0.7679   0.0597   -0.060
  33   0.7545   0.0640   -0.002
  34   0.7409   0.0684    0.052
  35   0.7270   0.0728    0.107
  36   0.7129   0.0772    0.170
  37   0.6986   0.0817    0.228
  38   0.6841   0.0862    0.295
  39   0.6694   0.0906    0.357
  40   0.6545   0.0950    0.424
  41   0.6395   0.0994    0.494
  42   0.6243   0.1036    0.562
  43   0.6091   0.1077    0.627
  44   0.5937   0.1116    0.703
  45   0.5782   0.1154    0.766
  46   0.5627   0.1189    0.841
  47   0.5471   0.1223    0.909
  48   0.5314   0.1254    0.970
  49   0.5157   0.1282    1.038
  50   0.5000   0.1307    1.102
  51   0.4843   0.1329    1.155
  52   0.4686   0.1348    1.212
  53   0.4529   0.1364    1.261
  54   0.4373   0.1376    1.307
  55   0.4218   0.1384    1.345
  56   0.4063   0.1389    1.378
  57   0.3909   0.1390    1.396
  58   0.3757   0.1388    1.421
  59   0.3605   0.1381    1.430
  60   0.3455   0.1371    1.430
  61   0.3306   0.1357    1.429
  62   0.3159   0.1340    1.410
  63   0.3014   0.1319    1.399
  64   0.2871   0.1295    1.367
  65   0.2730   0.1268    1.331
  66   0.2591   0.1238    1.299
  67   0.2455   0.1205    1.253
  68   0.2321   0.1170    1.198
  69   0.2190   0.1132    1.158
  70   0.2061   0.1093    1.095
  71   0.1935   0.1051    1.039
  72   0.1813   0.1009    0.989
  73   0.1693   0.0964    0.920
  74   0.1577   0.0919    0.866
  75   0.1464   0.0874    0.814
  76   0.1355   0.0828    0.752
  77   0.1249   0.0782    0.709
  78   0.1147   0.0735    0.659
  79   0.1049   0.0690    0.621
  80   0.0955   0.0645    0.584
  81   0.0865   0.0600    0.557
  82   0.0778   0.0557    0.543
  83   0.0696   0.0514    0.545
  84   0.0618   0.0473    0.552
  85   0.0545   0.0434    0.582
  86   0.0476   0.0395    0.660
  87   0.0411   0.0359    0.729
  88   0.0351   0.0323    0.859
  89   0.0296   0.0290    1.051
  90   0.0245   0.0258    1.285
  91   0.0199   0.0227    1.632
  92   0.0157   0.0198    2.081
  93   0.0120   0.0170    2.690
  94   0.0089   0.0143    3.543
  95   0.0062   0.0118    4.643
  96   0.0039   0.0093    6.100
  97   0.0022   0.0069    7.963
  98   0.0010   0.0046    9.950
  99   0.0002   0.0023   11.666
 100   0.0000   0.0000   12.184
 101   0.0002  -0.0024   11.698
 102   0.0010  -0.0047   10.959
 103   0.0022  -0.0069    9.971
 104   0.0039  -0.0091    8.849
 105   0.0062  -0.0111    7.767
 106   0.0089  -0.0130    6.806
 107   0.0120  -0.0147    5.933
 108   0.0157  -0.0162    5.192
 109   0.0199  -0.0174    4.557
 110   0.0245  -0.0184    3.989
 111   0.0296  -0.0192    3.509
 112   0.0351  -0.0196    3.091
 113   0.0411  -0.0198    2.697
 114   0.0476  -0.0197    2.368
 115   0.0545  -0.0193    2.069
 116   0.0618  -0.0186    1.795
 117   0.0696  -0.0176    1.540
 118   0.0778  -0.0163    1.316
 119   0.0865  -0.0148    1.105
 120   0.0955  -0.0130    0.910
 121   0.1049  -0.0110    0.735
 122   0.1147  -0.0087    0.572
 123   0.1249  -0.0063    0.407
 124   0.1355  -0.0037    0.265
 125   0.1464  -0.0010    0.137
 126   0.1577   0.0019    0.005
 127   0.1693   0.0049   -0.111
 128   0.1813   0.0079   -0.224
 129   0.1935   0.0109   -0.318
 130   0.2061   0.0139   -0.418
 131   0.2190   0.0169   -0.502
 132   0.2321   0.0199   -0.580
 133   0.2455   0.0227   -0.648
 134   0.2591   0.0255   -0.716
 135   0.2730   0.0281   -0.763
 136   0.2871   0.0306   -0.810
 137   0.3014   0.0329   -0.855
 138   0.3159   0.0350   -0.874
 139   0.3306   0.0369   -0.904
 140   0.3455   0.0386   -0.907
 141   0.3605   0.0401   -0.921
 142   0.3757   0.0413   -0.910
 143   0.3909   0.0424   -0.906
 144   0.4063   0.0431   -0.889
 145   0.4218   0.0437   -0.860
 146   0.4373   0.0440   -0.834
 147   0.4529   0.0440   -0.802
 148   0.4686   0.0439   -0.762
 149   0.4843   0.0435   -0.721
 150   0.5000   0.0430   -0.670
 151   0.5157   0.0423   -0.622
 152   0.5314   0.0414   -0.575
 153   0.5471   0.0403   -0.519
 154   0.5627   0.0391   -0.468
 155   0.5782   0.0378   -0.413
 156   0.5937   0.0364   -0.364
 157   0.6091   0.0348   -0.307
 158   0.6243   0.0332   -0.253
 159   0.6395   0.0316   -0.208
 160   0.6545   0.0299   -0.160
 161   0.6694   0.0282   -0.109
 162   0.6841   0.0265   -0.067
 163   0.6986   0.0248   -0.028
 164   0.7129   0.0231    0.016
 165   0.7270   0.0214    0.051
 166   0.7409   0.0198    0.083
 167   0.7545   0.0182    0.109
 168   0.7679   0.0167    0.142
 169   0.7810   0.0152    0.167
 170   0.7939   0.0138    0.183
 171   0.8065   0.0125    0.204
 172   0.8187   0.0112    0.214
 173   0.8307   0.0101    0.235
 174   0.8423   0.0090    0.238
 175   0.8536   0.0080    0.243
 176   0.8645   0.0070    0.250
 177   0.8751   0.0062    0.257
 178   0.8853   0.0054    0.249
 179   0.8951   0.0047    0.241
 180   0.9045   0.0041    0.253
 181   0.9135   0.0035    0.232
 182   0.9222   0.0030    0.231
 183   0.9304   0.0025    0.224
 184   0.9382   0.0021    0.216
 185   0.9455   0.0018    0.191
 186   0.9524   0.0015    0.196
 187   0.9589   0.0012    0.176
 188   0.9649   0.0010    0.161
 189   0.9704   0.0008    0.155
 190   0.9755   0.0006    0.135
 191   0.9801   0.0005    0.136
 192   0.9843   0.0004    0.091
 193   0.9880   0.0003    0.118
 194   0.9911   0.0002    0.072
 195   0.9938   0.0001    0.052
 196   0.9961   0.0001    0.080
 197   0.9978   0.0000    0.047
 198   0.9990   0.0000    0.032
 199   0.9998   0.0000   -0.076

 Maximum panel corner angle = 12.184   at  i,x,y  = 100   0.0000   0.0000

 Enter corner angle criterion for refinement (deg):   6.092
 Enter type of spline parameter (1=uniform, 2=arclength):   1
 Enter refinement x limits:  -0.10000   1.10000
 Number of points added:           22
 Max thickness =     0.099024  at x =   0.301
 Max camber    =     0.091044  at x =   0.422

 Maximum panel corner angle =  5.192   at  i,x,y  = 130   0.0157  -0.0162

.GDES   c>  
 Buffer airfoil is not identical to current airfoil

 XFOIL   c>  
 Blunt trailing edge.  Gap =  0.00025

 Paneling parameters used...
   Number of panel nodes       160
   Panel bunching parameter    1.000
   TE/LE panel density ratio   0.150
   Refined-area/LE panel density ratio    0.200
   Top    side refined area x/c limits  1.000 1.000
   Bottom side refined area x/c limits  1.000 1.000

 XFOIL   c>  
.OPERi   c>   Current iteration limit:          20

Enter new iteration limit   i>  
Enter new iteration limit   i>  
Enter new iteration limit   i>  
.OPERi   c>  
 M  =    0.0000
 Re =  0.3000E+06

.OPERv   c>  
 Sonic Cp =    -66.86      Sonic Q/Qinf =     9.138


.OPERv   c>  
 Polar  1 newly created for accumulation
 Airfoil archived with polar: 000124                                          

Enter  polar save filename  OR  <return> for no file   s>  
 New polar save file available

Enter  polar dump filename  OR  <return> for no file   s>  
 Polar dump file will NOT be written

 Polar accumulation enabled

.OPERva   c>   Calculating unit vorticity distributions ...
 Calculating wake trajectory ...
 Calculating source influence matrix ...

 Solving BL system ...

 Initializing BL ...
    side            1  ...
 MRCHUE: Inverse mode at  48     Hk =   4.152
 MRCHUE: Inverse mode at  49     Hk =   4.828
 MRCHUE: Inverse mode at  50     Hk =   5.487
 MRCHUE: Inverse mode at  51     Hk =   6.135
 MRCHUE: Inverse mode at  52     Hk =   6.774
 MRCHUE: Inverse mode at  53     Hk =   7.406
 MRCHUE: Inverse mode at  54     Hk =   8.033
 MRCHUE: Inverse mode at  55     Hk =   8.656
 MRCHUE: Inverse mode at  56     Hk =   9.276
 MRCHUE: Inverse mode at  57     Hk =   8.381
 MRCHUE: Inverse mode at  58     Hk =   5.944
 MRCHUE: Inverse mode at  59     Hk =   4.448
 MRCHUE: Inverse mode at  60     Hk =   3.363
 MRCHUE: Inverse mode at  61     Hk =   2.520
 MRCHUE: Convergence failed at  84  side 1    Res =  0.1214E+02
    side            2  ...
 MRCHUE: Inverse mode at  18     Hk =   4.210
 MRCHUE: Inverse mode at  19     Hk =   5.301
 MRCHUE: Inverse mode at  20     Hk =   6.346
 MRCHUE: Inverse mode at  21     Hk =   7.359
 MRCHUE: Inverse mode at  22     Hk =   8.344
 MRCHUE: Inverse mode at  23     Hk =   9.304
 MRCHUE: Inverse mode at  24     Hk =   9.399
 MRCHUE: Inverse mode at  25     Hk =   5.423
 MRCHUE: Inverse mode at  26     Hk =   3.656
 MRCHUE: Inverse mode at  27     Hk =   2.500
 MRCHUE: Convergence failed at  78  side 2    Res =  0.2303E+02
 MRCHUE: Convergence failed at  80  side 2    Res =  0.5402E-02

 MRCHDU: Convergence failed at  84  side 1    Res =  0.1161E+02
 MRCHDU: Convergence failed at  78  side 2    Res =  0.3387E+01
 MRCHDU: Convergence failed at  80  side 2    Res =  0.5427E-02
 Side 1  free  transition at x/c =  0.5979   57
 Side 2  free  transition at x/c =  0.1694   24

   1   rms: 0.5827E+00   max: 0.2930E+01   D at   80  2   RLX: 0.512
       a =  2.000      CL =  1.0011
      Cm = -0.1622     CD =  0.00799   =>   CDf =  0.00744    CDp =  0.00055

 Side 1  free  transition at x/c =  0.5967   57
 Side 2  free  transition at x/c =  0.1769   25

   2   rms: 0.1897E+00   max: 0.7888E+00   D at   83  2
       a =  2.000      CL =  0.9409
      Cm = -0.1507     CD =  0.01433   =>   CDf =  0.00769    CDp =  0.00663

 Side 1  free  transition at x/c =  0.5903   57
 Side 2  free  transition at x/c =  0.1677   24

   3   rms: 0.3217E-01   max: -.2157E+00   D at   27  2
       a =  2.000      CL =  0.9325
      Cm = -0.1491     CD =  0.01589   =>   CDf =  0.00792    CDp =  0.00798

 Side 1  free  transition at x/c =  0.5899   57
 Side 2  free  transition at x/c =  0.1639   24

   4   rms: 0.1572E-02   max: -.2372E-01   D at   27  2
       a =  2.000      CL =  0.9325
      Cm = -0.1491     CD =  0.01595   =>   CDf =  0.00795    CDp =  0.00799

 Side 1  free  transition at x/c =  0.5898   57
 Side 2  free  transition at x/c =  0.1638   24

   5   rms: 0.2178E-04   max: -.3725E-03   D at   27  2
       a =  2.000      CL =  0.9325
      Cm = -0.1491     CD =  0.01595   =>   CDf =  0.00796    CDp =  0.00799

 Point added to stored polar  1
 Point written to save file  000124M0.1.log                                  
 Dump file unspecified or not available
 Calculating wake trajectory ...
 Calculating source influence matrix ...

 Solving BL system ...

 Side 1  free  transition at x/c =  0.5898   57
 Side 2  free  transition at x/c =  0.1638   24

   1   rms: 0.1721E+00   max: -.1256E+01   T at   24  2   RLX: 0.398
       a =  3.000      CL =  0.9775
      Cm = -0.1494     CD =  0.01607   =>   CDf =  0.00797    CDp =  0.00811

 Side 1  free  transition at x/c =  0.5875   56
 Side 2  free  transition at x/c =  0.1750   25

   2   rms: 0.1075E+00   max: -.7672E+00   T at   25  2   RLX: 0.652
       a =  3.000      CL =  1.0164
      Cm = -0.1493     CD =  0.01631   =>   CDf =  0.00789    CDp =  0.00843

 Side 1  free  transition at x/c =  0.5818   57
 Side 2  free  transition at x/c =  0.1835   24

   3   rms: 0.7858E-01   max: 0.4861E+00   T at    2  1
       a =  3.000      CL =  1.0403
      Cm = -0.1493     CD =  0.01644   =>   CDf =  0.00781    CDp =  0.00863

 Side 1  free  transition at x/c =  0.5800   57
 Side 2  free  transition at x/c =  0.1956   25

   4   rms: 0.5560E-01   max: 0.7010E+00   D at   25  2
       a =  3.000      CL =  1.0398
      Cm = -0.1493     CD =  0.01628   =>   CDf =  0.00771    CDp =  0.00857

 Side 1  free  transition at x/c =  0.5801   57
 Side 2  free  transition at x/c =  0.1930   25

   5   rms: 0.9245E-02   max: 0.7795E-01   D at   25  2
       a =  3.000      CL =  1.0397
      Cm = -0.1493     CD =  0.01632   =>   CDf =  0.00774    CDp =  0.00858

 Side 1  free  transition at x/c =  0.5801   57
 Side 2  free  transition at x/c =  0.1917   25

   6   rms: 0.4127E-03   max: -.3560E-02   D at   27  2
       a =  3.000      CL =  1.0397
[...]
 Side 2 forced transition at x/c =  1.0001   70

   7   rms: 0.8241E-02   max: -.3635E-01   D at   61  1
       a = 13.000      CL =  1.3469
      Cm = -0.1022     CD =  0.08503   =>   CDf =  0.00719    CDp =  0.07784

 Side 1  free  transition at x/c =  0.0238   23
 Side 2 forced transition at x/c =  1.0001   70

   8   rms: 0.1060E-02   max: -.6582E-02   D at   85  2
       a = 13.000      CL =  1.3476
      Cm = -0.1023     CD =  0.08524   =>   CDf =  0.00721    CDp =  0.07803

 Side 1  free  transition at x/c =  0.0238   23
 Side 2 forced transition at x/c =  1.0001   70

   9   rms: 0.3394E-04   max: -.3676E-03   D at   85  2
       a = 13.000      CL =  1.3476
      Cm = -0.1023     CD =  0.08525   =>   CDf =  0.00721    CDp =  0.07805

 Point added to stored polar  1
 Point written to save file  000124M0.1.log                                  
 Dump file unspecified or not available
 Calculating wake trajectory ...
 Calculating source influence matrix ...

 Solving BL system ...

 Side 1  free  transition at x/c =  0.0238   23
 Side 2 forced transition at x/c =  1.0001   70

   1   rms: 0.1702E+00   max: -.1307E+00   T at   85  2   RLX: 0.534
       a = 14.000      CL =  1.3945
      Cm = -0.0978     CD =  0.08395   =>   CDf =  0.00722    CDp =  0.07673

 Side 1  free  transition at x/c =  0.0220   23
 Side 2 forced transition at x/c =  1.0001   70

   2   rms: 0.5496E-01   max: 0.3681E+00   T at   23  1
       a = 14.000      CL =  1.4189
      Cm = -0.0964     CD =  0.08678   =>   CDf =  0.00681    CDp =  0.07998

 Side 1  free  transition at x/c =  0.0207   24
 Side 2 forced transition at x/c =  1.0001   69

   3   rms: 0.1241E-01   max: -.6693E-01   D at   63  1
       a = 14.000      CL =  1.4223
      Cm = -0.0958     CD =  0.08579   =>   CDf =  0.00704    CDp =  0.07875

 Side 1  free  transition at x/c =  0.0206   24
 Side 2 forced transition at x/c =  1.0001   69

   4   rms: 0.3649E-02   max: -.1311E-01   D at   85  2
       a = 14.000      CL =  1.4249
      Cm = -0.0958     CD =  0.08588   =>   CDf =  0.00708    CDp =  0.07880

 Side 1  free  transition at x/c =  0.0206   24
 Side 2 forced transition at x/c =  1.0001   69

   5   rms: 0.2791E-03   max: -.2211E-02   D at   85  2
       a = 14.000      CL =  1.4251
      Cm = -0.0959     CD =  0.08596   =>   CDf =  0.00709    CDp =  0.07887

 Side 1  free  transition at x/c =  0.0206   24
 Side 2 forced transition at x/c =  1.0001   69

   6   rms: 0.1859E-04   max: 0.2998E-03   C at   69  2
       a = 14.000      CL =  1.4251
      Cm = -0.0959     CD =  0.08597   =>   CDf =  0.00709    CDp =  0.07888

 Point added to stored polar  1
 Point written to save file  000124M0.1.log                                  
 Dump file unspecified or not available
 Calculating wake trajectory ...
 Calculating source influence matrix ...

 Solving BL system ...

 Side 1  free  transition at x/c =  0.0206   24
 Side 2 forced transition at x/c =  1.0001   69

   1   rms: 0.2130E+00   max: 0.7660E+00   T at   24  1   RLX: 0.532
       a = 15.000      CL =  1.4897
      Cm = -0.0903     CD =  0.08217   =>   CDf =  0.00710    CDp =  0.07508

 Side 1  free  transition at x/c =  0.0199   24
 Side 2 forced transition at x/c =  1.0001   69

   2   rms: 0.1946E+00   max: 0.5960E+00   T at   66  1
       a = 15.000      CL =  1.6112
      Cm = -0.0825     CD =  0.07493   =>   CDf =  0.00666    CDp =  0.06827

 MRCHDU: Convergence failed at  65  side 1    Res =  0.1411E+01
 MRCHDU: Convergence failed at  66  side 1    Res =  0.2641E+01
 MRCHDU: Convergence failed at  67  side 1    Res =  0.1167E+02
 MRCHDU: Convergence failed at  68  side 1    Res =  0.2893E+01
 MRCHDU: Convergence failed at  69  side 1    Res =  0.1404E+01
 MRCHDU: Convergence failed at  70  side 1    Res =  0.1466E+01
 MRCHDU: Convergence failed at  71  side 1    Res =  0.2735E+01
 MRCHDU: Convergence failed at  72  side 1    Res =  0.1864E+02
 MRCHDU: Convergence failed at  73  side 1    Res =  0.2991E+01
 MRCHDU: Convergence failed at  74  side 1    Res =  0.1622E+01
 MRCHDU: Convergence failed at  75  side 1    Res =  0.1124E+01
 MRCHDU: Convergence failed at  76  side 1    Res =  0.1056E+01
 MRCHDU: Convergence failed at  77  side 1    Res =  0.1907E+01
 MRCHDU: Convergence failed at  78  side 1    Res =  0.2701E+01
 MRCHDU: Convergence failed at  79  side 1    Res =  0.1185E+02
 Side 1  free  transition at x/c =  0.0222   25
 Side 2 forced transition at x/c =  1.0001   68

   3   rms: 0.7029E+00   max: 0.3568E+01   D at   25  1   RLX: 0.212
       a = 15.000      CL =  1.7333
      Cm = -0.1325     CD =  0.05934   =>   CDf =  0.00727    CDp =  0.05207

 TRCHEK2: N2 convergence failed.
 x:  0.09114  0.10106  0.10312  N:  8.961  9.000  9.005  Nx:  29.476   dN:-0.143E+01
 TRCHEK2: N2 convergence failed.
 x:  0.09114  0.10106  0.10312  N:  8.961  9.000  9.005  Nx:  29.207   dN:-0.879E+00
 TRCHEK2: N2 convergence failed.
 x:  0.09114  0.10107  0.10312  N:  8.961  9.000  9.005  Nx:  28.877   dN:-0.472E+00
 TRCHEK2: N2 convergence failed.
 x:  0.09114  0.10225  0.10312  N:  8.961  9.000  9.001  Nx:  27.847   dN:-0.164E+02
 TRCHEK2: N2 convergence failed.
 x:  0.09114  0.10106  0.10312  N:  8.961  9.000  9.005  Nx:  29.665   dN:-0.861E+00
 TRCHEK2: N2 convergence failed.
 x:  0.09114  0.10106  0.10312  N:  8.961  9.000  9.005  Nx:  29.347   dN:-0.565E+00
 TRCHEK2: N2 convergence failed.
 x:  0.09114  0.10106  0.10312  N:  8.961  9.000  9.005  Nx:  29.558   dN:-0.673E+00
 TRCHEK2: N2 convergence failed.
 x:  0.09114  0.10107  0.10312  N:  8.961  9.000  9.005  Nx:  29.177   dN:-0.417E+00
 TRCHEK2: N2 convergence failed.
 x:  0.09114  0.10106  0.10312  N:  8.961  9.000  9.005  Nx:  29.569   dN:-0.129E+01
 MRCHDU: Convergence failed at  28  side 1    Res =  0.6503E+01
 MRCHDU: Convergence failed at  29  side 1    Res =  0.4882E+02
 MRCHDU: Convergence failed at  30  side 1    Res =  0.3276E+02
 MRCHDU: Convergence failed at  31  side 1    Res =  0.6032E+02
 MRCHDU: Convergence failed at  32  side 1    Res =  0.4777E+02
 MRCHDU: Convergence failed at  33  side 1    Res =  0.2011E+03
 MRCHDU: Convergence failed at  34  side 1    Res =  0.7347E+02
 MRCHDU: Convergence failed at  35  side 1    Res =  0.7172E+02
 MRCHDU: Convergence failed at  36  side 1    Res =  0.7236E+02
 MRCHDU: Convergence failed at  37  side 1    Res =  0.8332E+02
 MRCHDU: Convergence failed at  38  side 1    Res =  0.8713E+02
 MRCHDU: Convergence failed at  39  side 1    Res =  0.8979E+02
 MRCHDU: Convergence failed at  40  side 1    Res =  0.9171E+02
 MRCHDU: Convergence failed at  41  side 1    Res =  0.9312E+02
 MRCHDU: Convergence failed at  42  side 1    Res =  0.9415E+02
 MRCHDU: Convergence failed at  43  side 1    Res =  0.9477E+02
 MRCHDU: Convergence failed at  44  side 1    Res =  0.9493E+02
 MRCHDU: Convergence failed at  45  side 1    Res =  0.9460E+02
 MRCHDU: Convergence failed at  46  side 1    Res =  0.9376E+02
 MRCHDU: Convergence failed at  47  side 1    Res =  0.9235E+02
 MRCHDU: Convergence failed at  48  side 1    Res =  0.9043E+02
 MRCHDU: Convergence failed at  49  side 1    Res =  0.7968E+02
 MRCHDU: Convergence failed at  50  side 1    Res =  0.9304E+02
 MRCHDU: Convergence failed at  51  side 1    Res =  0.8604E+02
 MRCHDU: Convergence failed at  52  side 1    Res =  0.9462E+02
 MRCHDU: Convergence failed at  53  side 1    Res =  0.1056E+03
 MRCHDU: Convergence failed at  54  side 1    Res =  0.1200E+03
 MRCHDU: Convergence failed at  55  side 1    Res =  0.1386E+03
 MRCHDU: Convergence failed at  56  side 1    Res =  0.1702E+03
 MRCHDU: Convergence failed at  57  side 1    Res =  0.2123E+03
 MRCHDU: Convergence failed at  58  side 1    Res =  0.5689E+03
 MRCHDU: Convergence failed at  59  side 1    Res =  0.1078E+04
 MRCHDU: Convergence failed at  60  side 1    Res =  0.3398E+03
 MRCHDU: Convergence failed at  61  side 1    Res =  0.1061E+04
 MRCHDU: Convergence failed at  62  side 1    Res =  0.4929E+03
 MRCHDU: Convergence failed at  63  side 1    Res =  0.9322E+03
 MRCHDU: Convergence failed at  64  side 1    Res =  0.1147E+04
 MRCHDU: Convergence failed at  65  side 1    Res =  0.8890E+03
 MRCHDU: Convergence failed at  66  side 1    Res =  0.9489E+03
 MRCHDU: Convergence failed at  67  side 1    Res =  0.1022E+04
 MRCHDU: Convergence failed at  68  side 1    Res =  0.3125E+03
 MRCHDU: Convergence failed at  69  side 1    Res =  0.3090E+03
 MRCHDU: Convergence failed at  70  side 1    Res =  0.3058E+03
 MRCHDU: Convergence failed at  71  side 1    Res =  0.3027E+03
 MRCHDU: Convergence failed at  72  side 1    Res =  0.2999E+03
 MRCHDU: Convergence failed at  73  side 1    Res =  0.3243E+03
 MRCHDU: Convergence failed at  74  side 1    Res =  0.3169E+03
 MRCHDU: Convergence failed at  75  side 1    Res =  0.3108E+03
 MRCHDU: Convergence failed at  76  side 1    Res =  0.3056E+03
 MRCHDU: Convergence failed at  77  side 1    Res =  0.3264E+03
 MRCHDU: Convergence failed at  78  side 1    Res =  0.3184E+03
 MRCHDU: Convergence failed at  79  side 1    Res =  0.3111E+03
 MRCHDU: Convergence failed at  80  side 1    Res =  0.3103E+03
 MRCHDU: Convergence failed at  81  side 1    Res =  0.4315E+04
 MRCHDU: Convergence failed at  82  side 1    Res =  0.3083E+03
 MRCHDU: Convergence failed at  83  side 1    Res =  0.2254E+04
 MRCHDU: Convergence failed at  84  side 1    Res =  0.2395E+04
 MRCHDU: Convergence failed at  85  side 1    Res =  0.2494E+04
 MRCHDU: Convergence failed at  86  side 1    Res =  0.1506E+04
 MRCHDU: Convergence failed at  87  side 1    Res =  0.1650E+04
 MRCHDU: Convergence failed at  88  side 1    Res =  0.1806E+04
 MRCHDU: Convergence failed at  89  side 1    Res =  0.1958E+04
 MRCHDU: Convergence failed at  90  side 1    Res =  0.1394E+04
 MRCHDU: Convergence failed at  91  side 1    Res =  0.1571E+04
 MRCHDU: Convergence failed at  92  side 1    Res =  0.2868E+03
 MRCHDU: Convergence failed at  93  side 1    Res =  0.2818E+03
 MRCHDU: Convergence failed at  94  side 1    Res =  0.2733E+03
 MRCHDU: Convergence failed at  78  side 2    Res =  0.1424E+02
 MRCHDU: Convergence failed at  79  side 2    Res =  0.1109E+02
 MRCHDU: Convergence failed at  80  side 2    Res =  0.4195E+01
 MRCHDU: Convergence failed at  81  side 2    Res =  0.3812E+01
 MRCHDU: Convergence failed at  82  side 2    Res =  0.1408E+03
 MRCHDU: Convergence failed at  83  side 2    Res =  0.3112E+01
 MRCHDU: Convergence failed at  84  side 2    Res =  0.8897E+00
 Side 1  free  transition at x/c =  0.0416   28
 Side 2 forced transition at x/c =  1.0001   68

   4   rms: 0.3362E+01   max: 0.1956E+02   D at   76  2   RLX: 0.077
       a = 15.000      CL =  4.6083
      Cm = -1.1175     CD =  0.00805   =>   CDf =  0.00098    CDp =  0.00707

 MRCHDU: Convergence failed at  76  side 2    Res =  0.8783E+01
 MRCHDU: Convergence failed at  77  side 2    Res =  0.1064E+02
 Side 1  free  transition at x/c =  0.0407   27
 Side 2 forced transition at x/c =  1.0001   68

   5   rms: 0.1551E+01   max: 0.8175E+01   D at   78  2   RLX: 0.087
       a = 15.000      CL =  3.5904
      Cm = -0.8009     CD =  0.15183   =>   CDf =  0.00207    CDp =  0.14976

 MRCHDU: Convergence failed at  27  side 1    Res =  0.3288E-03
 MRCHDU: Convergence failed at  82  side 2    Res =  0.8485E+00
 MRCHDU: Convergence failed at  83  side 2    Res =  0.1550E+01
 MRCHDU: Convergence failed at  84  side 2    Res =  0.5247E+01
 MRCHDU: Convergence failed at  85  side 2    Res =  0.1253E+01
 MRCHDU: Convergence failed at  86  side 2    Res =  0.2325E+01
 MRCHDU: Convergence failed at  87  side 2    Res =  0.7607E+01
 MRCHDU: Convergence failed at  88  side 2    Res =  0.4415E+01
 Side 1  free  transition at x/c =  0.0408   27
 Side 2 forced transition at x/c =  1.0001   68

   6   rms: 0.5152E+02   max: 0.2466E+03   D at   90  2   RLX: 0.002
       a = 15.000      CL =  3.4916
      Cm = -0.7839     CD =  0.22539   =>   CDf =  0.00224    CDp =  0.22316

 Side 1  free  transition at x/c =  0.0406   27
 Side 2 forced transition at x/c =  1.0001   68

   7   rms: 0.1264E+01   max: -.5849E+01   C at   68  2   RLX: 0.085
       a = 15.000      CL =  3.3933
      Cm = -0.7530     CD =  0.18064   =>   CDf =  0.00219    CDp =  0.17844

 MRCHDU: Convergence failed at  85  side 2    Res =  0.1049E+01
 MRCHDU: Convergence failed at  86  side 2    Res =  0.2477E+01
 Side 1  free  transition at x/c =  0.0406   27
 Side 2 forced transition at x/c =  1.0001   68

   8   rms: 0.2025E+01   max: -.7464E+01   T at   28  1   RLX: 0.067
       a = 15.000      CL =  3.1973
      Cm = -0.7080     CD =  0.24651   =>   CDf =  0.00260    CDp =  0.24391

 Side 1  free  transition at x/c =  0.0402   26
 Side 2 forced transition at x/c =  1.0001   69

   9   rms: 0.2955E+01   max: -.2461E+02   T at   27  1   RLX: 0.020
       a = 15.000      CL =  3.1850
      Cm = -0.7084     CD =  0.33466   =>   CDf =  0.00246    CDp =  0.33220

 Side 1  free  transition at x/c =  0.0399   26
 Side 2 forced transition at x/c =  1.0001   69

  10   rms: 0.4765E+01   max: -.7089E+02   T at   27  1   RLX: 0.007
       a = 15.000      CL =  3.1724
      Cm = -0.7089     CD =  0.36755   =>   CDf =  0.00249    CDp =  0.36506

 Side 1  free  transition at x/c =  0.0397   26
 Side 2 forced transition at x/c =  1.0001   69

  11   rms: 0.7007E+01   max: 0.1633E+03   T at   27  1   RLX: 0.008
       a = 15.000      CL =  3.1484
      Cm = -0.7026     CD =  0.37089   =>   CDf =  0.00249    CDp =  0.36839

 Side 1  free  transition at x/c =  0.0382   26
 Side 2 forced transition at x/c =  1.0001   69

  12   rms: 0.1798E+01   max: 0.5531E+01   T at   26  1   RLX: 0.096
       a = 15.000      CL =  2.8183
      Cm = -0.6259     CD =  0.26825   =>   CDf =  0.00270    CDp =  0.26556

 Side 1  free  transition at x/c =  0.0281   24
 Side 2 forced transition at x/c =  1.0001   70

  13   rms: 0.2004E+01   max: -.1920E+02   T at   24  1   RLX: 0.026
       a = 15.000      CL =  2.6938
      Cm = -0.5959     CD =  0.50396   =>   CDf =  0.00254    CDp =  0.50142

 Side 1  free  transition at x/c =  0.0284   24
 Side 2 forced transition at x/c =  1.0001   70

  14   rms: 0.1496E+01   max: -.4704E+01   T at   92  2   RLX: 0.106
       a = 15.000      CL =  2.3998
      Cm = -0.5261     CD =  0.55169   =>   CDf =  0.00255    CDp =  0.54914

 Side 1  free  transition at x/c =  0.0269   24
 Side 2 forced transition at x/c =  1.0001   70

  15   rms: 0.4973E+01   max: 0.9698E+02   T at   24  1   RLX: 0.015
       a = 15.000      CL =  2.3679
      Cm = -0.5125     CD =  0.98715   =>   CDf =  0.00257    CDp =  0.98458

 Side 1  free  transition at x/c =  0.0248   23
 Side 2 forced transition at x/c =  1.0001   70

  16   rms: 0.1247E+01   max: 0.4005E+01   T at   24  1   RLX: 0.134
       a = 15.000      CL =  2.0927
      Cm = -0.4446     CD =  1.51850   =>   CDf =  0.00258    CDp =  1.51592

 MRCHDU: Convergence failed at  89  side 1    Res =  0.2487E-01
 MRCHDU: Convergence failed at  90  side 1    Res =  0.2426E-01
 MRCHDU: Convergence failed at  91  side 1    Res =  0.1466E-01
 MRCHDU: Convergence failed at  92  side 1    Res =  0.5891E-02
 Side 1  free  transition at x/c =  0.0251   23
 Side 2 forced transition at x/c =  1.0001   70

  17   rms: 0.9764E+01   max: 0.6260E+02   T at   92  2   RLX: 0.024
       a = 15.000      CL =  2.1468
      Cm = -0.4546     CD =  1.88969   =>   CDf =  0.00261    CDp =  1.88709

 MRCHDU: Convergence failed at  87  side 1    Res =  0.1454E+01
 Side 1  free  transition at x/c =  0.0249   23
 Side 2 forced transition at x/c =  1.0001   70

  18   rms: 0.4247E+01   max: 0.8358E+02   C at   90  1   RLX: 0.018
       a = 15.000      CL =  2.1111
      Cm = -0.4429     CD =  0.86818   =>   CDf =  0.00264    CDp =  0.86554

 MRCHDU: Convergence failed at  87  side 1    Res =  0.4569E-01
 MRCHDU: Convergence failed at  88  side 1    Res =  0.1312E+00
 MRCHDU: Convergence failed at  89  side 1    Res =  0.2909E+00
 Side 1  free  transition at x/c =  0.0249   23
 Side 2 forced transition at x/c =  1.0001   70

  19   rms: 0.8467E+00   max: 0.5043E+01   C at   89  1   RLX: 0.165
       a = 15.000      CL =  1.8796
      Cm = -0.3849     CD =  0.70804   =>   CDf =  0.00284    CDp =  0.70520

 MRCHDU: Convergence failed at  80  side 1    Res =  0.6721E+00
 MRCHDU: Convergence failed at  83  side 1    Res =  0.1825E-01
 MRCHDU: Convergence failed at  84  side 1    Res =  0.5192E-01
 MRCHDU: Convergence failed at  85  side 1    Res =  0.7133E-01
 MRCHDU: Convergence failed at  86  side 1    Res =  0.1178E+00
 MRCHDU: Convergence failed at  87  side 1    Res =  0.6435E-01
 Side 1  free  transition at x/c =  0.0251   22
 Side 2 forced transition at x/c =  1.0001   71

  20   rms: 0.2614E+04   max: -.1650E+05   C at   88  1   RLX: 0.000
       a = 15.000      CL =  1.8189
      Cm = -0.3679     CD =  0.87936   =>   CDf =  0.00269    CDp =  0.87667

 MRCHDU: Convergence failed at  80  side 1    Res =  0.1800E-01
 Side 1  free  transition at x/c =  0.0251   22
 Side 2 forced transition at x/c =  1.0001   71

  21   rms: 0.1807E+02   max: -.2450E+03   C at   91  1   RLX: 0.002
       a = 15.000      CL =  1.8113
      Cm = -0.3661     CD =  0.50927   =>   CDf =  0.00267    CDp =  0.50659

 MRCHDU: Convergence failed at  80  side 1    Res =  0.3565E-01
 Side 1  free  transition at x/c =  0.0251   22
 Side 2 forced transition at x/c =  1.00Got result {'DD': 0.01584, 'Dmin': 0.01492, 'LL': -0.9278}
Completed successfully in 3.32 seconds. [{'DD': 0.01584, 'Dmin': 0.01492, 'LL': -0.9278}]
01   71

  22   rms: 0.6262E+02   max: -.8495E+03   C at   91  1   RLX: 0.001
       a = 15.000      CL =  1.8106
      Cm = -0.3659     CD =  0.49609   =>   CDf =  0.00267    CDp =  0.49342

 MRCHDU: Convergence failed at  80  side 1    Res =  0.2173E+00
 MRCHDU: Convergence failed at  83  side 1    Res =  0.1065E-01
 MRCHDU: Convergence failed at  84  side 1    Res =  0.5144E-01
 MRCHDU: Convergence failed at  85  side 1    Res =  0.7190E-01
 MRCHDU: Convergence failed at  86  side 1    Res =  0.4503E-01
 MRCHDU: Convergence failed at  87  side 1    Res =  0.5262E-01
 MRCHDU: Convergence failed at  88  side 1    Res =  0.4034E+00
 Side 1  free  transition at x/c =  0.0251   22
 Side 2 forced transition at x/c =  1.0001   71

  23   rms: 0.4856E+02   max: 0.2952E+03   T at   93  2   RLX: 0.004
       a = 15.000      CL =  1.9131
      Cm = -0.3891     CD =  1.23424   =>   CDf =  0.00247    CDp =  1.23177

 MRCHDU: Convergence failed at  82  side 1    Res =  0.2486E-02
 MRCHDU: Convergence failed at  83  side 1    Res =  0.4679E-01
 MRCHDU: Convergence failed at  84  side 1    Res =  0.2874E-01
 MRCHDU: Convergence failed at  85  side 1    Res =  0.4922E-01
 MRCHDU: Convergence failed at  86  side 1    Res =  0.6756E-01
 MRCHDU: Convergence failed at  87  side 1    Res =  0.4242E-01
 MRCHDU: Convergence failed at  88  side 1    Res =  0.5484E-01
 Side 1  free  transition at x/c =  0.0253   24
 Side 2 forced transition at x/c =  1.0001   70

  24   rms: 0.2571E+01   max: 0.3167E+02   C at   88  1   RLX: 0.021
       a = 15.000      CL =  1.8562
      Cm = -0.3751     CD =  0.79902   =>   CDf =  0.00289    CDp =  0.79613

 MRCHDU: Convergence failed at  81  side 1    Res =  0.7854E-02
 MRCHDU: Convergence failed at  82  side 1    Res =  0.4794E-01
 MRCHDU: Convergence failed at  83  side 1    Res =  0.2906E-01
 MRCHDU: Convergence failed at  84  side 1    Res =  0.5015E-01
 MRCHDU: Convergence failed at  85  side 1    Res =  0.8339E-01
 MRCHDU: Convergence failed at  86  side 1    Res =  0.6558E-01
 MRCHDU: Convergence failed at  87  side 1    Res =  0.6374E-01
 Side 1  free  transition at x/c =  0.0254   23
 Side 2 forced transition at x/c =  1.0001   71

  25   rms: 0.9363E+00   max: 0.8385E+01   C at   87  1   RLX: 0.179
       a = 15.000      CL =  1.7249
      Cm = -0.3390     CD =  0.71216   =>   CDf =  0.00271    CDp =  0.70945
 VISCAL:  Convergence failed

.OPERva   c>  
 XFOIL   c>  
