Job launching after 0.35 seconds in submission.
Running python job.
Changed into dir /home/simonx/Documents/Udacity/Projects/capstone/PESM_NSGA2_CST_XFoil
Importing evaluationFunctionXFoil.py
Running evaluationFunctionXFoil.main()
0
1
2
0.04
resp: 
 ===================================================
  XFOIL Version 6.97
  Copyright (C) 2000   Mark Drela, Harold Youngren

  This software comes with ABSOLUTELY NO WARRANTY,
    subject to the GNU General Public License.

  Caveat computor
 ===================================================

 File  xfoil.def  not found

   QUIT    Exit program

  .OPER    Direct operating point(s)
  .MDES    Complex mapping design routine
  .QDES    Surface speed design routine
  .GDES    Geometry design routine

   SAVE f  Write airfoil to labeled coordinate file
   PSAV f  Write airfoil to plain coordinate file
   ISAV f  Write airfoil to ISES coordinate file
   MSAV f  Write airfoil to MSES coordinate file
   REVE    Reverse written-airfoil node ordering
   DELI i  Change written-airfoil file delimiters

   LOAD f  Read buffer airfoil from coordinate file
   NACA i  Set NACA 4,5-digit airfoil and buffer airfoil
   INTE    Set buffer airfoil by interpolating two airfoils
   NORM    Buffer airfoil normalization toggle
   HALF    Halve the number of points in buffer airfoil
   XYCM rr Change CM reference location, currently  0.25000 0.00000

   BEND    Display structural properties of current airfoil

   PCOP    Set current-airfoil panel nodes directly from buffer airfoil points
   PANE    Set current-airfoil panel nodes ( 160 ) based on curvature
  .PPAR    Show/change paneling

  .PLOP    Plotting options

   WDEF f  Write  current-settings file
   RDEF f  Reread current-settings file
   NAME s  Specify new airfoil name
   NINC    Increment name version number

   Z       Zoom    | (available in all menus)
   U       Unzoom  | 

 XFOIL   c>   ...............................................

  G raphics-enable flag:        T
  S ize of plot object          10.00"
  A spect ratio of plot object   0.5500
  P age dimensions              11.00 x  8.50"
  M argins from page edges       0.00",  0.00"
  F ont size (relative)          0.0150
  W indow/screen size fraction   0.8000
  B lowup input method:        Cursor    
  O rientation of plot:        Landscape 
  C olor PostScript output?     F

      Option, Value   (or <Return>)    c>   ...............................................

  G raphics-enable flag:        F
  S ize of plot object          10.00"
  A spect ratio of plot object   0.5500
  P age dimensions              11.00 x  8.50"
  M argins from page edges       0.00",  0.00"
  F ont size (relative)          0.0150
  W indow/screen size fraction   0.8000
  B lowup input method:        Cursor    
  O rientation of plot:        Landscape 
  C olor PostScript output?     F

      Option, Value   (or <Return>)    c>  
 XFOIL   c>  
 Labeled airfoil file.  Name:  000035                                          

 Number of input coordinate points: 200
 Clockwise ordering
 Max thickness =     0.209240  at x =   0.181
 Max camber    =     0.045033  at x =   0.741

  LE  x,y  =  -0.00000   0.00041  |   Chord =   0.99988
  TE  x,y  =   0.99988   0.00006  |

 Current airfoil nodes set from buffer airfoil nodes ( 200 )

 XFOIL   c>  
 You are working with the buffer airfoil

.GDES   c>  
  i       x        y      angle
   2   0.9990   0.0005    0.088
   3   0.9978   0.0011    0.171
   4   0.9961   0.0019    0.191
   5   0.9938   0.0030    0.243
   6   0.9911   0.0043    0.324
   7   0.9880   0.0058    0.332
   8   0.9843   0.0075    0.399
   9   0.9801   0.0094    0.440
  10   0.9755   0.0115    0.481
  11   0.9704   0.0137    0.523
  12   0.9649   0.0161    0.567
  13   0.9589   0.0186    0.591
  14   0.9524   0.0212    0.650
  15   0.9455   0.0239    0.661
  16   0.9382   0.0267    0.692
  17   0.9304   0.0295    0.727
  18   0.9222   0.0323    0.741
  19   0.9135   0.0352    0.765
  20   0.9045   0.0381    0.771
  21   0.8951   0.0410    0.789
  22   0.8853   0.0438    0.786
  23   0.8751   0.0466    0.800
  24   0.8645   0.0494    0.785
  25   0.8536   0.0521    0.786
  26   0.8423   0.0547    0.772
  27   0.8307   0.0572    0.752
  28   0.8187   0.0596    0.737
  29   0.8065   0.0620    0.713
  30   0.7939   0.0642    0.686
  31   0.7810   0.0663    0.650
  32   0.7679   0.0683    0.621
  33   0.7545   0.0702    0.589
  34   0.7409   0.0720    0.541
  35   0.7270   0.0737    0.502
  36   0.7129   0.0753    0.462
  37   0.6986   0.0768    0.420
  38   0.6841   0.0782    0.374
  39   0.6694   0.0796    0.326
  40   0.6545   0.0808    0.288
  41   0.6395   0.0820    0.237
  42   0.6243   0.0832    0.202
  43   0.6091   0.0843    0.151
  44   0.5937   0.0854    0.120
  45   0.5782   0.0864    0.078
  46   0.5627   0.0874    0.044
  47   0.5471   0.0885    0.011
  48   0.5314   0.0895   -0.011
  49   0.5157   0.0905   -0.044
  50   0.5000   0.0916   -0.062
  51   0.4843   0.0926   -0.073
  52   0.4686   0.0937   -0.091
  53   0.4529   0.0948   -0.092
  54   0.4373   0.0959   -0.094
  55   0.4218   0.0971   -0.091
  56   0.4063   0.0982   -0.081
  57   0.3909   0.0994   -0.061
  58   0.3757   0.1006   -0.036
  59   0.3605   0.1018   -0.015
  60   0.3455   0.1029    0.024
  61   0.3306   0.1041    0.073
  62   0.3159   0.1052    0.114
  63   0.3014   0.1063    0.181
  64   0.2871   0.1073    0.234
  65   0.2730   0.1083    0.312
  66   0.2591   0.1091    0.394
  67   0.2455   0.1099    0.474
  68   0.2321   0.1105    0.578
  69   0.2190   0.1110    0.676
  70   0.2061   0.1113    0.797
  71   0.1935   0.1115    0.910
  72   0.1813   0.1114    1.048
  73   0.1693   0.1111    1.185
  74   0.1577   0.1106    1.336
  75   0.1464   0.1099    1.497
  76   0.1355   0.1088    1.664
  77   0.1249   0.1075    1.849
  78   0.1147   0.1059    2.028
  79   0.1049   0.1041    2.227
  80   0.0955   0.1019    2.422
  81   0.0865   0.0994    2.625
  82   0.0778   0.0965    2.836
  83   0.0696   0.0934    3.028
  84   0.0618   0.0899    3.233
  85   0.0545   0.0861    3.414
  86   0.0476   0.0820    3.598
  87   0.0411   0.0776    3.739
  88   0.0351   0.0729    3.887
  89   0.0296   0.0679    4.001
  90   0.0245   0.0627    4.083
  91   0.0199   0.0572    4.152
  92   0.0157   0.0514    4.211
  93   0.0120   0.0455    4.216
  94   0.0089   0.0394    4.244
  95   0.0062   0.0331    4.236
  96   0.0039   0.0266    4.224
  97   0.0022   0.0201    4.227
  98   0.0010   0.0134    4.206
  99   0.0002   0.0067    4.200
 100   0.0000   0.0000    4.712
 101   0.0002  -0.0054    5.190
 102   0.0010  -0.0108    5.119
 103   0.0022  -0.0162    5.024
 104   0.0039  -0.0215    4.875
 105   0.0062  -0.0268    4.708
 106   0.0089  -0.0320    4.538
 107   0.0120  -0.0370    4.316
 108   0.0157  -0.0420    4.132
 109   0.0199  -0.0469    3.922
 110   0.0245  -0.0516    3.722
 111   0.0296  -0.0561    3.534
 112   0.0351  -0.0605    3.346
 113   0.0411  -0.0647    3.176
 114   0.0476  -0.0687    3.013
 115   0.0545  -0.0725    2.859
 116   0.0618  -0.0761    2.715
 117   0.0696  -0.0794    2.578
 118   0.0778  -0.0825    2.452
 119   0.0865  -0.0853    2.337
 120   0.0955  -0.0879    2.215
 121   0.1049  -0.0902    2.116
 122   0.1147  -0.0922    2.016
 123   0.1249  -0.0939    1.918
 124   0.1355  -0.0953    1.818
 125   0.1464  -0.0964    1.745
 126   0.1577  -0.0972    1.646
 127   0.1693  -0.0977    1.569
 128   0.1813  -0.0978    1.488
 129   0.1935  -0.0977    1.405
 130   0.2061  -0.0972    1.336
 131   0.2190  -0.0964    1.256
 132   0.2321  -0.0954    1.185
 133   0.2455  -0.0940    1.107
 134   0.2591  -0.0923    1.042
 135   0.2730  -0.0904    0.968
 136   0.2871  -0.0881    0.898
 137   0.3014  -0.0856    0.829
 138   0.3159  -0.0829    0.761
 139   0.3306  -0.0799    0.694
 140   0.3455  -0.0767    0.624
 141   0.3605  -0.0733    0.561
 142   0.3757  -0.0697    0.493
 143   0.3909  -0.0659    0.429
 144   0.4063  -0.0620    0.359
 145   0.4218  -0.0579    0.297
 146   0.4373  -0.0538    0.233
 147   0.4529  -0.0496    0.165
 148   0.4686  -0.0453    0.107
 149   0.4843  -0.0409    0.037
 150   0.5000  -0.0366   -0.020
 151   0.5157  -0.0322   -0.088
 152   0.5314  -0.0279   -0.148
 153   0.5471  -0.0236   -0.207
 154   0.5627  -0.0195   -0.272
 155   0.5782  -0.0154   -0.333
 156   0.5937  -0.0114   -0.392
 157   0.6091  -0.0075   -0.446
 158   0.6243  -0.0039   -0.507
 159   0.6395  -0.0003   -0.565
 160   0.6545   0.0030   -0.617
 161   0.6694   0.0061   -0.672
 162   0.6841   0.0090   -0.720
 163   0.6986   0.0117   -0.771
 164   0.7129   0.0142   -0.814
 165   0.7270   0.0164   -0.864
 166   0.7409   0.0184   -0.901
 167   0.7545   0.0201   -0.934
 168   0.7679   0.0215   -0.974
 169   0.7810   0.0227   -0.999
 170   0.7939   0.0237   -1.029
 171   0.8065   0.0244   -1.045
 172   0.8187   0.0248   -1.065
 173   0.8307   0.0251   -1.069
 174   0.8423   0.0251   -1.086
 175   0.8536   0.0249   -1.081
 176   0.8645   0.0245   -1.073
 177   0.8751   0.0239   -1.078
 178   0.8853   0.0231   -1.051
 179   0.8951   0.0222   -1.043
 180   0.9045   0.0211   -1.010
 181   0.9135   0.0200   -0.997
 182   0.9222   0.0187   -0.951
 183   0.9304   0.0174   -0.928
 184   0.9382   0.0159   -0.890
 185   0.9455   0.0145   -0.832
 186   0.9524   0.0130   -0.813
 187   0.9589   0.0116   -0.738
 188   0.9649   0.0101   -0.705
 189   0.9704   0.0087   -0.651
 190   0.9755   0.0074   -0.598
 191   0.9801   0.0061   -0.542
 192   0.9843   0.0049   -0.470
 193   0.9880   0.0038   -0.432
 194   0.9911   0.0028   -0.368
 195   0.9938   0.0020   -0.322
 196   0.9961   0.0013   -0.221
 197   0.9978   0.0007   -0.184
 198   0.9990   0.0003   -0.150
 199   0.9998   0.0001    0.023

 Maximum panel corner angle =  5.190   at  i,x,y  = 101   0.0002  -0.0054

 Enter corner angle criterion for refinement (deg):   2.595
 Enter type of spline parameter (1=uniform, 2=arclength):   1
 Enter refinement x limits:  -0.10000   1.10000
 Number of points added:           72
 Max thickness =     0.209239  at x =   0.181
 Max camber    =     0.045139  at x =   0.741

 Maximum panel corner angle =  2.452   at  i,x,y  = 190   0.0778  -0.0825

.GDES   c>  
 Buffer airfoil is not identical to current airfoil

 XFOIL   c>  
 Blunt trailing edge.  Gap =  0.00028

 Paneling parameters used...
   Number of panel nodes       160
   Panel bunching parameter    1.000
   TE/LE panel density ratio   0.150
   Refined-area/LE panel density ratio    0.200
   Top    side refined area x/c limits  1.000 1.000
   Bottom side refined area x/c limits  1.000 1.000

 XFOIL   c>  
Enter output filename   s>  
 XFOIL   c>  
.OPERi   c>   Current iteration limit:          20

Enter new iteration limit   i>  
Enter new iteration limit   i>  
Enter new iteration limit   i>  
.OPERi   c>  
 M  =    0.0000
 Re =  0.3000E+06

.OPERv   c>  
 Sonic Cp =   -420.65      Sonic Q/Qinf =    22.825


.OPERv   c>  
 Polar  1 newly created for accumulation
 Airfoil archived with polar: 000035                                          

Enter  polar save filename  OR  <return> for no file   s>  
 New polar save file available

Enter  polar dump filename  OR  <return> for no file   s>  
 Polar dump file will NOT be written

 Polar accumulation enabled

.OPERva   c>   Calculating unit vorticity distributions ...
 Calculating wake trajectory ...
 Calculating source influence matrix ...

 Solving BL system ...

 Initializing BL ...
    side            1  ...
 MRCHUE: Inverse mode at  43     Hk =   4.196
 MRCHUE: Inverse mode at  44     Hk =   4.994
 MRCHUE: Inverse mode at  45     Hk =   5.808
 MRCHUE: Inverse mode at  46     Hk =   6.649
 MRCHUE: Inverse mode at  47     Hk =   7.528
 MRCHUE: Inverse mode at  48     Hk =   8.453
 MRCHUE: Inverse mode at  49     Hk =   9.436
 MRCHUE: Inverse mode at  50     Hk =   5.627
 MRCHUE: Inverse mode at  51     Hk =   2.595
 MRCHUE: Inverse mode at  84     Hk =   2.500
 MRCHUE: Convergence failed at  85  side 1    Res =  0.3584E+01
    side            2  ...
 MRCHUE: Inverse mode at  40     Hk =   4.117
 MRCHUE: Inverse mode at  41     Hk =   5.002
 MRCHUE: Inverse mode at  42     Hk =   5.890
 MRCHUE: Inverse mode at  43     Hk =   6.790
 MRCHUE: Inverse mode at  44     Hk =   7.708
 MRCHUE: Inverse mode at  45     Hk =   8.650
 MRCHUE: Inverse mode at  46     Hk =   9.620
 MRCHUE: Inverse mode at  47     Hk =   4.830
 MRCHUE: Inverse mode at  48     Hk =   2.702

 MRCHDU: Convergence failed at  85  side 1    Res =  0.3054E+01
 Side 1  free  transition at x/c =  0.2000   50
 Side 2  free  transition at x/c =  0.3987   47

   1   rms: 0.2309E+00   max: -.7868E+00   D at   77  2   RLX: 0.635
       a =  2.000      CL =  0.9667
      Cm = -0.1911     CD =  0.01720   =>   CDf =  0.00914    CDp =  0.00807

 Side 1  free  transition at x/c =  0.2063   49
 Side 2  free  transition at x/c =  0.3956   47

   2   rms: 0.9206E-01   max: -.3372E+00   C at   47  2
       a =  2.000      CL =  0.8551
      Cm = -0.1687     CD =  0.02001   =>   CDf =  0.00896    CDp =  0.01105

 Side 1  free  transition at x/c =  0.2122   50
 Side 2  free  transition at x/c =  0.3840   47

   3   rms: 0.1422E-01   max: -.8539E-01   D at   48  2
       a =  2.000      CL =  0.8537
      Cm = -0.1684     CD =  0.02005   =>   CDf =  0.00892    CDp =  0.01113

 Side 1  free  transition at x/c =  0.2126   50
 Side 2  free  transition at x/c =  0.3844   47

   4   rms: 0.3877E-03   max: 0.2628E-02   T at   50  1
       a =  2.000      CL =  0.8539
      Cm = -0.1684     CD =  0.02009   =>   CDf =  0.00890    CDp =  0.01119

 Side 1  free  transition at x/c =  0.2125   50
 Side 2  free  transition at x/c =  0.3843   47

   5   rms: 0.4698E-05   max: 0.1794E-04   T at   50  1
       a =  2.000      CL =  0.8539
      Cm = -0.1684     CD =  0.02009   =>   CDf =  0.00890    CDp =  0.01119

 Point added to stored polar  1
 Point written to save file  000035M0.04.log                                 
 Dump file unspecified or not available
 Calculating wake trajectory ...
 Calculating source influence matrix ...

 Solving BL system ...

 Side 1  free  transition at x/c =  0.2125   50
 Side 2  free  transition at x/c =  0.3843   47

   1   rms: 0.1645E+00   max: 0.6362E+00   T at   50  1   RLX: 0.958
       a =  3.000      CL =  0.9793
      Cm = -0.1703     CD =  0.02339   =>   CDf =  0.00881    CDp =  0.01458

 MRCHDU: Convergence failed at  51  side 1    Res =  0.1296E+02
 MRCHDU: Convergence failed at  52  side 1    Res =  0.7975E+01
 MRCHDU: Convergence failed at  53  side 1    Res =  0.5715E+01
 MRCHDU: Convergence failed at  54  side 1    Res =  0.2649E+02
 MRCHDU: Convergence failed at  55  side 1    Res =  0.3002E+02
 MRCHDU: Convergence failed at  56  side 1    Res =  0.1730E+02
 MRCHDU: Convergence failed at  57  side 1    Res =  0.1618E+02
 MRCHDU: Convergence failed at  58  side 1    Res =  0.1937E+02
 MRCHDU: Convergence failed at  59  side 1    Res =  0.2541E+02
 MRCHDU: Convergence failed at  60  side 1    Res =  0.4661E+02
 MRCHDU: Convergence failed at  61  side 1    Res =  0.1751E+03
 MRCHDU: Convergence failed at  62  side 1    Res =  0.6020E+03
 MRCHDU: Convergence failed at  63  side 1    Res =  0.8028E+02
 MRCHDU: Convergence failed at  64  side 1    Res =  0.1191E+03
 MRCHDU: Convergence failed at  65  side 1    Res =  0.1526E+03
 MRCHDU: Convergence failed at  66  side 1    Res =  0.1298E+04
 MRCHDU: Convergence failed at  67  side 1    Res =  0.3855E+03
 MRCHDU: Convergence failed at  68  side 1    Res =  0.2672E+03
 MRCHDU: Convergence failed at  69  side 1    Res =  0.2535E+03
 MRCHDU: Convergence failed at  70  side 1    Res =  0.3421E+03
 MRCHDU: Convergence failed at  71  side 1    Res =  0.1725E+04
 MRCHDU: Convergence failed at  72  side 1    Res =  0.1186E+04
 MRCHDU: Convergence failed at  73  side 1    Res =  0.2087E+03
 MRCHDU: Convergence failed at  74  side 1    Res =  0.9848E+02
 MRCHDU: Convergence failed at  75  side 1    Res =  0.6316E+02
 MRCHDU: Convergence failed at  76  side 1    Res =  0.4005E+02
 MRCHDU: Convergence failed at  77  side 1    Res =  0.2669E+02
 MRCHDU: Convergence failed at  78  side 1    Res =  0.5722E+02
 MRCHDU: Convergence failed at  79  side 1    Res =  0.1620E+02
 MRCHDU: Convergence failed at  80  side 1    Res =  0.4654E+02
 MRCHDU: Convergence failed at  81  side 1    Res =  0.1786E+02
 MRCHDU: Convergence failed at  82  side 1    Res =  0.5537E+02
 MRCHDU: Convergence failed at  83  side 1    Res =  0.6129E+02
 MRCHDU: Convergence failed at  84  side 1    Res =  0.4054E+02
 MRCHDU: Convergence failed at  85  side 1    Res =  0.1046E+03
 Side 1  free  transition at x/c =  0.1976   50
 Side 2  free  transition at x/c =  0.3981   47

   2   rms: 0.6134E+00   max: 0.3186E+01   D at   79  2   RLX: 0.471
       a =  3.000      CL =  1.2627
      Cm = -0.3224     CD =  0.01551   =>   CDf =  0.00435    CDp =  0.01116

 MRCHDU: Convergence failed at  54  side 1    Res =  0.6589E-02
 MRCHDU: Convergence failed at  55  side 1    Res =  0.8409E+01
 MRCHDU: Convergence failed at  80  side 2    Res =  0.2521E+01
 MRCHDU: Convergence failed at  81  side 2    Res =  0.5067E+01
 MRCHDU: Convergence failed at  82  side 2    Res =  0.2113E+02
 MRCHDU: Convergence failed at  83  side 2    Res =  0.1188E+02
 MRCHDU: Convergence failed at  84  side 2    Res =  0.7309E+01
 MRCHDU: Convergence failed at  85  side 2    Res =  0.1052E+02
 MRCHDU: Convergence failed at  86  side 2    Res =  0.1816E+03
 MRCHDU: Convergence failed at  87  side 2    Res =  0.1197E+02
 MRCHDU: Convergence failed at  88  side 2    Res =  0.6458E+01
 MRCHDU: Convergence failed at  89  side 2    Res =  0.5012E+01
 MRCHDU: Convergence failed at  90  side 2    Res =  0.5829E+01
 MRCHDU: Convergence failed at  91  side 2    Res =  0.1474E+02
 MRCHDU: Convergence failed at  92  side 2    Res =  0.7529E+02
 MRCHDU: Convergence failed at  93  side 2    Res =  0.1278E+02
 MRCHDU: Convergence failed at  94  side 2    Res =  0.8182E+01
 MRCHDU: Convergence failed at  95  side 2    Res =  0.5386E+01
 MRCHDU: Convergence failed at  96  side 2    Res =  0.4242E+01
 MRCHDU: Convergence failed at  97  side 2    Res =  0.3301E+01
 MRCHDU: Convergence failed at  98  side 2    Res =  0.2263E+01
 MRCHDU: Convergence failed at  99  side 2    Res =  0.1877E+01
 MRCHDU: Convergence failed at 100  side 2    Res =  0.1583E+01
 Side 1  free  transition at x/c =  0.1941   48
 Side 2  free  transition at x/c =  0.3939   47

   3   rms: 0.4245E+00   max: -.2997E+01   T at   48  1   RLX: 0.167
       a =  3.000      CL =  0.9531
      Cm = -0.1865     CD =  0.05354   =>   CDf =  0.00567    CDp =  0.04788

 MRCHDU: Convergence failed at  49  side 1    Res =  0.7150E+01
 MRCHDU: Convergence failed at  50  side 1    Res =  0.1297E+03
 MRCHDU: Convergence failed at  51  side 1    Res =  0.8268E+01
 MRCHDU: Convergence failed at  52  side 1    Res =  0.4316E+03
 MRCHDU: Convergence failed at  53  side 1    Res =  0.1240E+02
 MRCHDU: Convergence failed at  54  side 1    Res =  0.5930E+01
 MRCHDU: Convergence failed at  55  side 1    Res =  0.6621E+01
 MRCHDU: Convergence failed at  56  side 1    Res =  0.6010E+01
 MRCHDU: Convergence failed at  57  side 1    Res =  0.9503E+01
 MRCHDU: Convergence failed at  58  side 1    Res =  0.5618E+02
 MRCHDU: Convergence failed at  59  side 1    Res =  0.2557E+02
 MRCHDU: Convergence failed at  60  side 1    Res =  0.1683E+02
 MRCHDU: Convergence failed at  61  side 1    Res =  0.1331E+02
 MRCHDU: Convergence failed at  62  side 1    Res =  0.1120E+02
 MRCHDU: Convergence failed at  63  side 1    Res =  0.9853E+01
 MRCHDU: Convergence failed at  64  side 1    Res =  0.7114E+01
 MRCHDU: Convergence failed at  65  side 1    Res =  0.7714E+01
 MRCHDU: Convergence failed at  66  side 1    Res =  0.7956E+01
 MRCHDU: Convergence failed at  67  side 1    Res =  0.8928E+01
 MRCHDU: Convergence failed at  68  side 1    Res =  0.9738E+01
 MRCHDU: Convergence failed at  69  side 1    Res =  0.1108E+02
 MRCHDU: Convergence failed at  70  side 1    Res =  0.1315E+02
 MRCHDU: Convergence failed at  71  side 1    Res =  0.1835E+02
 MRCHDU: Convergence failed at  72  side 1    Res =  0.3036E+02
 MRCHDU: Convergence failed at  73  side 1    Res =  0.1131E+03
 MRCHDU: Convergence failed at  74  side 1    Res =  0.4593E+02
 MRCHDU: Convergence failed at  75  side 1    Res =  0.3366E+02
 MRCHDU: Convergence failed at  76  side 1    Res =  0.2236E+02
 MRCHDU: Convergence failed at  77  side 1    Res =  0.1701E+02
 MRCHDU: Convergence failed at  78  side 1    Res =  0.1363E+02
 MRCHDU: Convergence failed at  79  side 1    Res =  0.1110E+02
 MRCHDU: Convergence failed at  80  side 1    Res =  0.9488E+01
 MRCHDU: Convergence failed at  81  side 1    Res =  0.9202E+01
 MRCHDU: Convergence failed at  82  side 1    Res =  0.7224E+01
 MRCHDU: Convergence failed at  83  side 1    Res =  0.7149E+01
 MRCHDU: Convergence failed at  84  side 1    Res =  0.6181E+01
 MRCHDU: Convergence failed at  93  side 2    Res =  0.3179E+01
 MRCHDU: Convergence failed at  94  side 2    Res =  0.2744E+01
 MRCHDU: Convergence failed at  95  side 2    Res =  0.2789E+01
 MRCHDU: Convergence failed at  96  side 2    Res =  0.2682E+01
 MRCHDU: Convergence failed at  97  side 2    Res =  0.1905E+01
 MRCHDU: Convergence failed at  98  side 2    Res =  0.1476E+02
 MRCHDU: Convergence failed at  99  side 2    Res =  0.1853E+02
 MRCHDU: Convergence failed at 100  side 2    Res =  0.1224E+02
 Side 1  free  transition at x/c =  0.2058   49
 Side 2  free  transition at x/c =  0.3947   47

   4   rms: 0.8111E+00   max: 0.4226E+01   D at   84  1   RLX: 0.355
       a =  3.000      CL =  1.4038
      Cm = -0.3729     CD =  0.01624   =>   CDf =  0.00417    CDp =  0.01207

 Side 1  free  transition at x/c =  0.2012   49
 Side 2  free  transition at x/c =  0.3940   47

   5   rms: 0.2892E+00   max: -.1051E+01   D at   70  1   RLX: 0.469
       a =  3.000      CL =  1.0634
      Cm = -0.2173     CD =  0.03373   =>   CDf =  0.00854    CDp =  0.02518

 Side 1  free  transition at x/c =  0.2035   49
 Side 2  free  transition at x/c =  0.3973   47

   6   rms: 0.5800E+00   max: -.3314E+01   D at   70  1   RLX: 0.151
       a =  3.000      CL =  1.0418
      Cm = -0.1982     CD =  0.02596   =>   CDf =  0.00815    CDp =  0.01781

 Side 1  free  transition at x/c =  0.2035   50
 Side 2  free  transition at x/c =  0.3986   47

   7   rms: 0.2140E+01   max: -.1110E+02   D at   75  1   RLX: 0.045
       a =  3.000      CL =  1.1110
      Cm = -0.2048     CD =  0.02228   =>   CDf =  0.00851    CDp =  0.01376

 Side 1  free  transition at x/c =  0.2013   50
 Side 2  free  transition at x/c =  0.4053   47

   8   rms: 0.9761E+00   max: -.4611E+01   D at   79  1   RLX: 0.108
       a =  3.000      CL =  1.1807
      Cm = -0.2129     CD =  0.01959   =>   CDf =  0.00884    CDp =  0.01076

 MRCHDU: Convergence failed at  67  side 1    Res =  0.1014E+00
 Side 1  free  transition at x/c =  0.1991   50
 Side 2  free  transition at x/c =  0.4096   47

   9   rms: 0.3703E+00   max: -.1597E+01   D at   80  1   RLX: 0.313
       a =  3.000      CL =  1.2464
      Cm = -0.2270     CD =  0.01945   =>   CDf =  0.00939    CDp =  0.01006

 Side 1  free  transition at x/c =  0.1968   51
 Side 2  free  transition at x/c =  0.4131   46

  10   rms: 0.1494E+00   max: -.6198E+00   D at   88  2   RLX: 0.807
       a =  3.000      CL =  1.0530
      Cm = -0.1836     CD =  0.01994   =>   CDf =  0.00961    CDp =  0.01033

 Side 1  free  transition at x/c =  0.1994   50
 Side 2  free  transition at x/c =  0.4058   47

  11   rms: 0.4800E-01   max: -.2255E+00   D at   89  2
       a =  3.000      CL =  0.9763
      Cm = -0.1684     CD =  0.02082   =>   CDf =  0.00901    CDp =  0.01181

 Side 1  free  transition at x/c =  0.2005   50
 Side 2  free  transition at x/c =  0.4034   47

  12   rms: 0.2101E-02   max: -.1990E-01   D at   89  2
       a =  3.000      CL =  0.9750
      Cm = -0.1682     CD =  0.02085   =>   CDf =  0.00886    CDp =  0.01199

 Side 1  free  transition at x/c =  0.2006   50
 Side 2  free  transition at x/c =  0.4033   47

  13   rms: 0.1528E-04   max: -.1433E-03   D at   89  2
       a =  3.000      CL =  0.9750
      Cm = -0.1681     CD =  0.02085   =>   CDf =  0.00886    CDp =  0.01199

 Point added to stored polar  1
 Point written to save file  000035M0.04.log                                 
 Dump file unspecified or not available
 Calculating wake trajectory ...
 Calculating source influence matrix ...

 Solving BL system ...

 Side 1  free  transition at x/c =  0.2006   50
 Side 2  free  transition at x/c =  0.4033   47

   1   rms: 0.1350E+00   max: -.5784E+00   T at   47  2   RLX: 0.864
       a =  4.000      CL =  1.0745
      Cm = -0.1668     CD =  0.02176   =>   CDf =  0.00875    CDp =  0.01301

 MRCHDU: Convergence failed at  51  side 1    Res =  0.4293E+01
 MRCHDU: Convergence failed at  52  side 1    Res =  0.2436E+01
 MRCHDU: Convergence failed at  53  side 1    Res =  0.1914E+02
 MRCHDU: Convergence failed at  54  side 1    Res =  0.7260E+01
 MRCHDU: Convergence failed at  55  side 1    Res =  0.4210E+01
 MRCHDU: Convergence failed at  56  side 1    Res =  0.3585E+01
 MRCHDU: Convergence failed at  57  side 1    Res =  0.3537E+01
 MRCHDU: Convergence failed at  58  side 1    Res =  0.3794E+01
 MRCHDU: Convergence failed at  59  side 1    Res =  0.4265E+01
 MRCHDU: Convergence failed at  60  side 1    Res =  0.4840E+01
 MRCHDU: Convergence failed at  61  side 1    Res =  0.5436E+01
 MRCHDU: Convergence failed at  62  side 1    Res =  0.5994E+01
 MRCHDU: Convergence failed at  63  side 1    Res =  0.6529E+01
 MRCHDU: Convergence failed at  64  side 1    Res =  0.7148E+01
 MRCHDU: Convergence failed at  65  side 1    Res =  0.8093E+01
 MRCHDU: Convergence failed at  66  side 1    Res =  0.9923E+01
 MRCHDU: Convergence failed at  67  side 1    Res =  0.1677E+03
 MRCHDU: Convergence failed at  68  side 1    Res =  0.8121E+02
 MRCHDU: Convergence failed at  69  side 1    Res =  0.5765E+02
 MRCHDU: Convergence failed at  70  side 1    Res =  0.4606E+02
 MRCHDU: Convergence failed at  71  side 1    Res =  0.3863E+02
 MRCHDU: Convergence failed at  72  side 1    Res =  0.3310E+02
 MRCHDU: Convergence failed at  73  side 1    Res =  0.3113E+02
 MRCHDU: Convergence failed at  74  side 1    Res =  0.2559E+02
 MRCHDU: Convergence failed at  75  side 1    Res =  0.2245E+02
 MRCHDU: Convergence failed at  76  side 1    Res =  0.1243E+03
 MRCHDU: Convergence failed at  77  side 1    Res =  0.5620E+02
 MRCHDU: Convergence failed at  78  side 1    Res =  0.1185E+03
 MRCHDU: Convergence failed at  79  side 1    Res =  0.4131E+02
 MRCHDU: Convergence failed at  80  side 1    Res =  0.6801E+02
 MRCHDU: Convergence failed at  81  side 1    Res =  0.2104E+02
 MRCHDU: Convergence failed at  82  side 1    Res =  0.2346E+02
 MRCHDU: Convergence failed at  83  side 1    Res =  0.2125E+02
 MRCHDU: Convergence failed at  84  side 1    Res =  0.1999E+02
 MRCHDU: Convergence failed at  85  side 1    Res =  0.3352E+02
 MRCHDU: Convergence failed at  86  side 1    Res =  0.7217E+04
 Side 1  free  transition at x/c =  0.1931   50
 Side 2  free  transition at x/c =  0.4166   46

   2   rms: 0.1056E+01   max: 0.4670E+01   D at   85  1   RLX: 0.321
       a =  4.000      CL =  1.7249
      Cm = -0.4447     CD =  0.01027   =>   CDf =  0.00395    CDp =  0.00632

 MRCHDU: Convergence failed at  59  side 1    Res =  0.3479E+00
 MRCHDU: Convergence failed at  61  side 1    Res =  0.3850E+00
 MRCHDU: Convergence failed at  62  side 1    Res =  0.3658E+00
 MRCHDU: Convergence failed at  63  side 1    Res =  0.3457E+00
 MRCHDU: Convergence failed at  64  side 1    Res =  0.3296E+00
 MRCHDU: Convergence failed at  65  side 1    Res =  0.3147E+00
 MRCHDU: Convergence failed at  66  side 1    Res =  0.2990E+00
 MRCHDU: Convergence failed at  67  side 1    Res =  0.2813E+00
 MRCHDU: Convergence failed at  68  side 1    Res =  0.2596E+00
 MRCHDU: Convergence failed at  69  side 1    Res =  0.2304E+00
 MRCHDU: Convergence failed at  70  side 1    Res =  0.1793E+00
 MRCHDU: Convergence failed at  80  side 2    Res =  0.2227E+01
 MRCHDU: Convergence failed at  81  side 2    Res =  0.4180E+01
 MRCHDU: Convergence failed at  82  side 2    Res =  0.1576E+01
 MRCHDU: Convergence failed at  83  side 2    Res =  0.1634E+01
 Side 1  free  transition at x/c =  0.1807   49
 Side 2  free  transition at x/c =  0.4161   46

   3   rms: 0.4861E+00   max: 0.4313E+01   T at   49  1   RLX: 0.183
       a =  4.000      CL =  1.2863
      Cm = -0.3011     CD =  0.04023   =>   CDf =  0.00477    CDp =  0.03546

 MRCHDU: Convergence failed at  71  side 1    Res =  0.2046E+00
 MRCHDU: Convergence failed at  72  side 1    Res =  0.6471E+00
 Side 1  free  transition at x/c =  0.1717   49
 Side 2  free  transition at x/c =  0.4177   46

   4   rms: 0.2628E+00   max: -.1002E+01   T at   49  1   RLX: 0.499
       a =  4.000      CL =  1.0367
      Cm = -0.1925     CD =  0.05479   =>   CDf =  0.00456    CDp =  0.05023

 MRCHDU: Convergence failed at  73  side 1    Res =  0.3214E-02
 Side 1  free  transition at x/c =  0.1779   49
 Side 2  free  transition at x/c =  0.4173   46

   5   rms: 0.9479E+00   max: 0.1037E+02   T at   49  1   RLX: 0.104
       a =  4.000      CL =  1.0283
      Cm = -0.1878     CD =  0.06730   =>   CDf =  0.00468    CDp =  0.06263

 Side 1  free  transition at x/c =  0.1669   48
 Side 2  free  transition at x/c =  0.4177   46

   6   rms: 0.4118E+00   max: 0.4324E+01   T at   48  1   RLX: 0.203
       a =  4.000      CL =  1.0133
      Cm = -0.1963     CD =  0.07572   =>   CDf =  0.00443    CDp =  0.07129

 Side 1  free  transition at x/c =  0.1603   47
 Side 2  free  transition at x/c =  0.4145   47

   7   rms: 0.2908E+00   max: -.1106E+01   D at   73  1   RLX: 0.452
       a =  4.000      CL =  1.0246
      Cm = -0.1746     CD =  0.06602   =>   CDf =  0.00403    CDp =  0.06198

 Side 1  free  transition at x/c =  0.1655   48
 Side 2  free  transition at x/c =  0.4168   46

   8   rms: 0.1664E+01   max: -.8762E+01   T at   48  1   RLX: 0.057
       a =  4.000      CL =  1.0362
      Cm = -0.1644     CD =  0.06484   =>   CDf =  0.00455    CDp =  0.06029

 Side 1  free  transition at x/c =  0.1732   49
 Side 2  free  transition at x/c =  0.4208   46

   9   rms: 0.5451E+00   max: -.1945E+01   D at   67  1   RLX: 0.257
       a =  4.000      CL =  1.0830
      Cm = -0.1639     CD =  0.04687   =>   CDf =  0.00502    CDp =  0.04186

 Side 1  free  transition at x/c =  0.1799   50
 Side 2  free  transition at x/c =  0.4248   46

  10   rms: 0.2433E+00   max: 0.1855E+01   T at   50  1   RLX: 0.345
       a =  4.000      CL =  1.0937
      Cm = -0.1680     CD =  0.04457   =>   CDf =  0.00580    CDp =  0.03877

 Side 1  free  transition at x/c =  0.1727   49
 Side 2  free  transition at x/c =  0.4238   47

  11   rms: 0.6658E+00   max: 0.9632E+01   T at    2  2   RLX: 0.124
       a =  4.000      CL =  1.1182
      Cm = -0.1720     CD =  0.04765   =>   CDf =  0.00529    CDp =  0.04235

 Side 1  free  transition at x/c =  0.1743   50
 Side 2  free  transition at x/c =  0.4248   46

  12   rms: 0.4016E+00   max: -.1591E+01   D at   61  1   RLX: 0.314
       a =  4.000      CL =  1.1441
      Cm = -0.1736     CD =  0.03861   =>   CDf =  0.00562    CDp =  0.03299

 Side 1  free  transition at x/c =  0.1802   50
 Side 2  free  transition at x/c =  0.4267   46

  13   rms: 0.2913E+00   max: 0.2906E+01   T at   50  1   RLX: 0.240
       a =  4.000      CL =  1.1228
      Cm = -0.1719     CD =  0.04040   =>   CDf =  0.00639    CDp =  0.03401

 Side 1  free  transition at x/c =  0.1721   50
 Side 2  free  transition at x/c =  0.4247   46

  14   rms: 0.3077E+00   max: -.1224E+01   D at   63  1   RLX: 0.408
       a =  4.000      CL =  1.1497
      Cm = -0.1753     CD =  0.03970   =>   CDf =  0.00561    CDp =  0.03409

 Side 1  free  transition at x/c =  0.1760   50
 Side 2  free  transition at x/c =  0.4261   46

  15   rms: 0.2909E+00   max: -.1171E+01   D at   63  1   RLX: 0.427
       a =  4.000      CL =  1.1600
      Cm = -0.1780     CD =  0.03330   =>   CDf =  0.00647    CDp =  0.02684

 Side 1  free  transition at x/c =  0.1819   51
 Side 2  free  transition at x/c =  0.4268   46

  16   rms: 0.1947E+00   max: -.9102E+00   D at   56  1   RLX: 0.549
       a =  4.000      CL =  1.1425
      Cm = -0.1763     CD =  0.02760   =>   CDf =  0.00761    CDp =  0.01999

 Side 1  free  transition at x/c =  0.1867   51
 Side 2  free  transition at x/c =  0.4257   46

  17   rms: 0.1453E+00   max: -.8499E+00   D at   54  1   RLX: 0.588
       a =  4.000      CL =  1.1212
      Cm = -0.1726     CD =  0.02405   =>   CDf =  0.00836    CDp =  0.01568

 Side 1  free  transition at x/c =  0.1910   51
 Side 2  free  transition at x/c =  0.4242   46

  18   rms: 0.7099E-01   max: -.4741E+00   D at   54  1
       a =  4.000      CL =  1.0920
      Cm = -0.1670     CD =  0.02184   =>   CDf =  0.00885    CDp =  0.01299

 Side 1  free  transition at x/c =  0.1909   50
 Side 2  free  transition at x/c =  0.4221   46

  19   rms: 0.6425E-02   max: 0.5931E-01   T at   50  1
       a =  4.000      CL =  1.0936
      Cm = -0.1674     CD =  0.02219   =>   CDf =  0.00887    CDp =  0.01333

 Side 1  free  transition at x/c =  0.1896   50
 Side 2  free  transition at x/c =  0.4219   46

  20   rms: 0.4222E-03   max: 0.3510E-02   D at    4  2
       a =  4.000      CL =  1.0935
      Cm = -0.1674     CD =  0.02220   =>   CDf =  0.00888    CDp =  0.01331

 Side 1  free  transition at x/c =  0.1896   50
 Side 2  free  transition at x/c =  0.4219   46

  21   rms: 0.5873E-05   max: -.2269E-04   D at   81  2
       a =  4.000      CL =  1.0935
      Cm = -0.1674     CD =  0.02220   =>   CDf =  0.00888    CDp =  0.01331

 Point added to stored polar  1
 Point written to save file  000035M0.04.log                                 
 Dump file unspecified or not available
 Calculating wake trajectory ...
 Calculating source influence matrix ...

 Solving BL system ...

 Side 1  free  transition at x/c =  0.1896   50
 Side 2  free  transition at x/c =  0.4219   46

   1   rms: 0.1367E+00   max: -.6543E+00   T at   46  2   RLX: 0.764
       a =  5.000      CL =  1.1842
      Cm = -0.1668     CD =  0.02311   =>   CDf =  0.00862    CDp =  0.01450

 MRCHDU: Convergence failed at  45  side 2    Res =  0.4937E+01
 MRCHDU: Convergence failed at  46  side 2    Res =  0.8816E+01
 MRCHDU: Convergence failed at  47  side 2    Res =  0.8979E+01
 MRCHDU: Convergence failed at  48  side 2    Res =  0.2024E+02
 MRCHDU: Convergence failed at  49  side 2    Res =  0.2497E+02
 MRCHDU: Convergence failed at  50  side 2    Res =  0.2362E+02
 MRCHDU: Convergence failed at  51  side 2    Res =  0.2061E+02
 MRCHDU: Convergence failed at  52  side 2    Res =  0.1810E+02
 MRCHDU: Convergence failed at  53  side 2    Res =  0.1609E+02
 MRCHDU: Convergence failed at  54  side 2    Res =  0.1463E+02
 MRCHDU: Convergence failed at  55  side 2    Res =  0.1298E+02
 MRCHDU: Convergence failed at  56  side 2    Res =  0.1475E+02
 MRCHDU: Convergence failed at  57  side 2    Res =  0.1589E+02
 MRCHDU: Convergence failed at  58  side 2    Res =  0.1686E+02
 MRCHDU: Convergence failed at  59  side 2    Res =  0.1767E+02
 MRCHDU: Convergence failed at  60  side 2    Res =  0.3221E+02
 MRCHDU: Convergence failed at  61  side 2    Res =  0.1848E+02
 MRCHDU: Convergence failed at  62  side 2    Res =  0.1842E+02
 MRCHDU: Convergence failed at  63  side 2    Res =  0.2052E+02
 MRCHDU: Convergence failed at  64  side 2    Res =  0.3902E+02
 MRCHDU: Convergence failed at  65  side 2    Res =  0.1645E+02
 MRCHDU: Convergence failed at  66  side 2    Res =  0.3562E+02
 MRCHDU: Convergence failed at  67  side 2    Res =  0.1933E+02
 MRCHDU: Convergence failed at  68  side 2    Res =  0.1654E+02
 MRCHDU: Convergence failed at  69  side 2    Res =  0.1869E+02
 MRCHDU: Convergence failed at  70  side 2    Res =  0.2220E+02
 MRCHDU: Convergence failed at  71  side 2    Res =  0.2916E+02
 MRCHDU: Convergence failed at  72  side 2    Res =  0.4945E+02
 MRCHDU: Convergence failed at  73  side 2    Res =  0.8902E+03
 MRCHDU: Convergence failed at  74  side 2    Res =  0.4628E+01
 Side 1  free  transition at x/c =  0.1822   52
 Side 2  free  transition at x/c =  0.4399   45

   2   rms: 0.5560E+00   max: 0.2110E+01   T at   63  2   RLX: 0.260
       a =  5.000      CL =  0.8941
      Cm = -0.0542     CD =  0.02091   =>   CDf =  0.00783    CDp =  0.01308

 MRCHDU: Convergence failed at  59  side 2    Res =  0.1860E-01
 MRCHDU: Convergence failed at  61  side 2    Res =  0.1295E+01
 Side 1  free  transition at x/c =  0.1858   51
 Side 2  free  transition at x/c =  0.4251   46

   3   rms: 0.2411E+00   max: -.1090E+01   D at   75  2   RLX: 0.459
       a =  5.000      CL =  1.0663
      Cm = -0.1218     CD =  0.02450   =>   CDf =  0.00868    CDp =  0.01582

 Side 1  free  transition at x/c =  0.1837   51
 Side 2  free  transition at x/c =  0.4327   46

   4   rms: 0.2728E+00   max: -.1340E+01   D at   53  2   RLX: 0.373
       a =  5.000      CL =  1.1431
      Cm = -0.1451     CD =  0.02395   =>   CDf =  0.00837    CDp =  0.01558

 Side 1  free  transition at x/c =  0.1819   52
 Side 2  free  transition at x/c =  0.4434   45

   5   rms: 0.2098E+00   max: -.1101E+01   D at   68  2   RLX: 0.434
       a =  5.000      CL =  1.2089
      Cm = -0.1623     CD =  0.02437   =>   CDf =  0.00897    CDp =  0.01539

 MRCHDU: Convergence failed at  61  side 2    Res =  0.9444E+00
 MRCHDU: Convergence failed at  62  side 2    Res =  0.7890E+00
 MRCHDU: Convergence failed at  63  side 2    Res =  0.2888E+01
 MRCHDU: Convergence failed at  64  side 2    Res =  0.6630E+00
 MRCHDU: Convergence failed at  69  side 2    Res =  0.1218E+01
 MRCHDU: Convergence failed at  70  side 2    Res =  0.1327E+01
 Side 1  free  transition at x/c =  0.1798   51
 Side 2  free  transition at x/c =  0.4458   45

   6   rms: 0.1616E+00   max: -.1039E+01   D at   69  2   RLX: 0.481
       a =  5.000      CL =  1.2221
      Cm = -0.1609     CD =  0.02454   =>   CDf =  0.00930    CDp =  0.01524

 MRCHDU: Convergence failed at  67  side 2    Res =  0.1268E+01
 MRCHDU: Convergence failed at  68  side 2    Res =  0.1639E+01
 MRCHDU: Convergence failed at  69  side 2    Res =  0.1669E+01
 MRCHDU: Convergence failed at  70  side 2    Res =  0.1474E+01
 Side 1  free  transition at x/c =  0.1791   51
 Side 2  free  transition at x/c =  0.4461   45

   7   rms: 0.1198E+00   max: -.1396E+00   D at   74  2
       a =  5.000      CL =  1.2179
      Cm = -0.1682     CD =  0.02357   =>   CDf =  0.00938    CDp =  0.01419

 Side 1  free  transition at x/c =  0.1799   51
 Side 2  free  transition at x/c =  0.4430   45

   8   rms: 0.1353E-01   max: -.1604E+00   D at   66  2
       a =  5.000      CL =  1.2095
      Cm = -0.1662     CD =  0.02366   =>   CDf =  0.00886    CDp =  0.01480

 Side 1  free  transition at x/c =  0.1801   51
 Side 2  free  transition at x/c =  0.4419   45

   9   rms: 0.6508E-03   max: -.1200E-01   D at   66  2
       a =  5.000      CL =  1.2093
      Cm = -0.1662     CD =  0.02365   =>   CDf =  0.00886    CDp =  0.01479

 Side 1  free  transition at x/c =  0.1801   51
 Side 2  free  transition at x/c =  0.4418   45

  10   rms: 0.3706E-05   max: -.6860E-04   D at   66  2
       a =  5.000      CL =  1.2093
      Cm = -0.1662     CD =  0.02365   =>   CDf =  0.00886    CDp =  0.01479

 Point added to stored polar  1
 Point written to save file  000035M0.04.log                                 
 Dump file unspecified or not available
 Calculating wake trajectory ...
 Calculating source influence matrix ...

 Solving BL system ...

 Side 1  free  transition at x/c =  0.1801   51
 Side 2  free  transition at x/c =  0.4418   45

   1   rms: 0.1313E+00   max: -.5221E+00   T at   45  2   RLX: 0.958
       a =  6.000      CL =  1.3175
      Cm = -0.1644     CD =  0.02467   =>   CDf =  0.00870    CDp =  0.01596

 Side 1  free  transition at x/c =  0.1712   52
 Side 2  free  transition at x/c =  0.4648   45

   2   rms: 0.3794E-01   max: 0.5135E+00   D at   45  2
       a =  6.000      CL =  1.3217
      Cm = -0.1644     CD =  0.02482   =>   CDf =  0.00875    CDp =  0.01607

 Side 1  free  transition at x/c =  0.1714   52
 Side 2  free  transition at x/c =  0.4630   45

   3   rms: 0.4418E-02   max: 0.4605E-01   T at   45  2
       a =  6.000      CL =  1.3209
      Cm = -0.1642     CD =  0.02484   =>   CDf =  0.00874    CDp =  0.01610

 Side 1  free  transition at x/c =  0.1714   52
 Side 2  free  transition at x/c =  0.4613   45

   4   rms: 0.1925E-03   max: -.1603E-02   D at   45  2
       a =  6.000      CL =  1.3209
      Cm = -0.1642     CD =  0.02484   =>   CDf =  0.00874    CDp =  0.01610

 Side 1  free  transition at x/c =  0.1714   52
 Side 2  free  transition at x/c =  0.4613   45

   5   rms: 0.6723E-06   max: -.3350E-05   D at   58  2
       a =  6.000      CL =  1.3209
      Cm = -0.1642     CD =  0.02484   =>   CDf =  0.00874    CDp =  0.01610

 Point added to stored polar  1
 Point written to save file  000035M0.04.log                                 
 Dump file unspecified or not available
 Calculating wake trajectory ...
 Calculating source influence matrix ...

 Solving BL system ...

 Side 1  free  transition at x/c =  0.1714   52
 Side 2  free  transition at x/c =  0.4613   45

   1   rms: 0.1302E+00   max: -.4789E+00   T at   45  2
       a =  7.000      CL =  1.4305
      Cm = -0.1619     CD =  0.02648   =>   CDf =  0.00839    CDp =  0.01809

 MRCHDU: Convergence failed at  54  side 1    Res =  0.3140E+01
 MRCHDU: Convergence failed at  55  side 1    Res =  0.3042E+01
 MRCHDU: Convergence failed at  56  side 1    Res =  0.2887E+02
 MRCHDU: Convergence failed at  57  side 1    Res =  0.9054E+01
 MRCHDU: Convergence failed at  58  side 1    Res =  0.5619E+01
 MRCHDU: Convergence failed at  59  side 1    Res =  0.4931E+01
 MRCHDU: Convergence failed at  60  side 1    Res =  0.5016E+01
 MRCHDU: Convergence failed at  61  side 1    Res =  0.6209E+01
 MRCHDU: Convergence failed at  62  side 1    Res =  0.8091E+01
 MRCHDU: Convergence failed at  63  side 1    Res =  0.9618E+01
 MRCHDU: Convergence failed at  64  side 1    Res =  0.3802E+02
 MRCHDU: Convergence failed at  65  side 1    Res =  0.9301E+02
 MRCHDU: Convergence failed at  66  side 1    Res =  0.3964E+02
 MRCHDU: Convergence failed at  67  side 1    Res =  0.2196E+02
 MRCHDU: Convergence failed at  68  side 1    Res =  0.3352E+02
 MRCHDU: Convergence failed at  69  side 1    Res =  0.3951E+02
 MRCHDU: Convergence failed at  70  side 1    Res =  0.2966E+02
 MRCHDU: Convergence failed at  71  side 1    Res =  0.4949E+02
 MRCHDU: Convergence failed at  72  side 1    Res =  0.3364E+03
 MRCHDU: Convergence failed at  73  side 1    Res =  0.2455E+02
 MRCHDU: Convergence failed at  74  side 1    Res =  0.4003E+02
 MRCHDU: Convergence failed at  75  side 1    Res =  0.1764E+03
 MRCHDU: Convergence failed at  76  side 1    Res =  0.3123E+03
 MRCHDU: Convergence failed at  77  side 1    Res =  0.2392E+03
 MRCHDU: Convergence failed at  78  side 1    Res =  0.6112E+02
 MRCHDU: Convergence failed at  79  side 1    Res =  0.2807E+02
 MRCHDU: Convergence failed at  80  side 1    Res =  0.3193E+02
 MRCHDU: Convergence failed at  81  side 1    Res =  0.3812E+02
 MRCHDU: Convergence failed at  82  side 1    Res =  0.2208E+02
 MRCHDU: Convergence failed at  83  side 1    Res =  0.6554E+02
 MRCHDU: Convergence failed at  84  side 1    Res =  0.2723E+03
 MRCHDU: Convergence failed at  85  side 1    Res =  0.6056E+02
 MRCHDU: Convergence failed at  86  side 1    Res =  0.7655E+02
 MRCHDU: Convergence failed at  87  side 1    Res =  0.2960E+02
 MRCHDU: Convergence failed at  88  side 1    Res =  0.2590E+02
 MRCHDU: Convergence failed at  89  side 1    Res =  0.4957E+02
 MRCHDU: Convergence failed at  90  side 1    Res =  0.4408E+04
 MRCHDU: Convergence failed at  91  side 1    Res =  0.5788E+04
 Side 1  free  transition at x/c =  0.1652   53
 Side 2  free  transition at x/c =  0.4806   44

   2   rms: 0.1514E+01   max: 0.5816E+01   D at   73  2   RLX: 0.258
       a =  7.000      CL =  2.5767
      Cm = -0.6264     CD =  0.00893   =>   CDf =  0.00380    CDp =  0.00513

 MRCHDU: Convergence failed at  73  side 2    Res =  0.7085E+01
 MRCHDU: Convergence failed at  74  side 2    Res =  0.1259E+02
 MRCHDU: Convergence failed at  75  side 2    Res =  0.8758E+01
 MRCHDU: Convergence failed at  76  side 2    Res =  0.8472E+02
 MRCHDU: Convergence failed at  77  side 2    Res =  0.1290E+02
 MRCHDU: Convergence failed at  78  side 2    Res =  0.9042E+01
 MRCHDU: Convergence failed at  79  side 2    Res =  0.7521E+01
 MRCHDU: Convergence failed at  80  side 2    Res =  0.3157E+02
 MRCHDU: Convergence failed at  81  side 2    Res =  0.4368E+02
 MRCHDU: Convergence failed at  82  side 2    Res =  0.2304E+02
 MRCHDU: Convergence failed at  83  side 2    Res =  0.9086E+01
 MRCHDU: Convergence failed at  84  side 2    Res =  0.7258E+01
 MRCHDU: Convergence failed at  85  side 2    Res =  0.5991E+01
 MRCHDU: Convergence failed at  86  side 2    Res =  0.5301E+01
 MRCHDU: Convergence failed at  87  side 2    Res =  0.4504E+01
 MRCHDU: Convergence failed at  88  side 2    Res =  0.4305E+01
 MRCHDU: Convergence failed at  89  side 2    Res =  0.5527E+01
 MRCHDU: Convergence failed at  90  side 2    Res =  0.6383E+01
 MRCHDU: Convergence failed at  91  side 2    Res =  0.1041E+02
 MRCHDU: Convergence failed at  92  side 2    Res =  0.1779E+02
 MRCHDU: Convergence failed at  93  side 2    Res =  0.4146E+01
 Side 1  free  transition at x/c =  0.1540   52
 Side 2  free  transition at x/c =  0.4801   44

   3   rms: 0.5553E+00   max: 0.6616E+00   T at   93  2   RLX: 0.242
       a =  7.000      CL =  1.7967
      Cm = -0.3910     CD =  0.05123   =>   CDf =  0.00480    CDp =  0.04643

 Side 1  free  transition at x/c =  0.1615   52
 Side 2  free  transition at x/c =  0.4762   45

   4   rms: 0.3795E+00   max: -.8921E+00   D at   92  2   RLX: 0.526
       a =  7.000      CL =  1.4037
      Cm = -0.2283     CD =  0.07589   =>   CDf =  0.00496    CDp =  0.07094

 MRCHDU: Convergence failed at  70  side 1    Res =  0.7803E-01
 Side 1  free  transition at x/c =  0.1676   51
 Side 2  free  transition at x/c =  0.4720   45

   5   rms: 0.3001E+00   max: 0.1736E+01   T at   51  1   RLX: 0.495
       a =  7.000      CL =  1.3246
      Cm = -0.1726     CD =  0.06642   =>   CDf =  0.00473    CDp =  0.06169

 Side 1  free  transition at x/c =  0.1564   52
 Side 2  free  transition at x/c =  0.4751   45

   6   rms: 0.4441E+00   max: -.1901E+01   D at   71  1   RLX: 0.263
       a =  7.000      CL =  1.3126
      Cm = -0.1565     CD =  0.06335   =>   CDf =  0.00467    CDp =  0.05869

 Side 1  free  transition at x/c =  0.1590   52
 Side 2  free  transition at x/c =  0.4785   45

   7   rms: 0.5427E+00   max: -.2139E+01   D at   71  1   RLX: 0.234
       a =  7.000      CL =  1.3442
      Cm = -0.1491     CD =  0.05417   =>   CDf =  0.00507    CDp =  0.04910

 Side 1  free  transition at x/c =  0.1642   52
 Side 2  free  transition at x/c =  0.4813   45

   8   rms: 0.2225E+01   max: -.1645E+02   T at   52  1   RLX: 0.030
       a =  7.000      CL =  1.2762
      Cm = -0.1414     CD =  0.06312   =>   CDf =  0.00564    CDp =  0.05747

 Side 1  free  transition at x/c =  0.1719   53
 Side 2  free  transition at x/c =  0.4768   45

   9   rms: 0.7176E+00   max: -.2689E+01   D at   80  1   RLX: 0.186
       a =  7.000      CL =  1.3781
      Cm = -0.1482     CD =  0.03940   =>   CDf =  0.00649    CDp =  0.03290

 Side 1  free  transition at x/c =  0.1712   53
 Side 2  free  transition at x/c =  0.4858   45

  10   rms: 0.5662E+00   max: -.2075E+01   D at   81  1   RLX: 0.241
       a =  7.000      CL =  1.4781
      Cm = -0.1615     CD =  0.03326   =>   CDf =  0.00706    CDp =  0.02619

 Side 1  free  transition at x/c =  0.1696   54
 Side 2  free  transition at x/c =  0.4911   44

  11   rms: 0.3735E+00   max: -.1331E+01   D at   85  1   RLX: 0.376
       a =  7.000      CL =  1.5515
      Cm = -0.1764     CD =  0.02739   =>   CDf =  0.00785    CDp =  0.01953

 Side 1  free  transition at x/c =  0.1683   53
 Side 2  free  transition at x/c =  0.4939   44

  12   rms: 0.1411E+00   max: -.5899E+00   D at   83  1   RLX: 0.848
       a =  7.000      CL =  1.4985
      Cm = -0.1715     CD =  0.02505   =>   CDf =  0.00848    CDp =  0.01657

 Side 1  free  transition at x/c =  0.1631   53
 Side 2  free  transition at x/c =  0.4863   44

  13   rms: 0.5167E-01   max: -.2542E+00   D at   54  1
       a =  7.000      CL =  1.4350
      Cm = -0.1628     CD =  0.02655   =>   CDf =  0.00859    CDp =  0.01796

 Side 1  free  transition at x/c =  0.1637   53
 Side 2  free  transition at x/c =  0.4823   44

  14   rms: 0.6182E-02   max: -.4052E-01   D at   87  1
       a =  7.000      CL =  1.4306
      Cm = -0.1621     CD =  0.02668   =>   CDf =  0.00862    CDp =  0.01806

 Side 1  free  transition at x/c =  0.1634   53
 Side 2  free  transition at x/c =  0.4820   44

  15   rms: 0.1814E-03   max: -.1560E-02   D at   88  1
       a =  7.000      CL =  1.4305
      Cm = -0.1621     CD =  0.02668   =>   CDf =  0.00862    CDp =  0.01807

 Side 1  free  transition at x/c =  0.1634   53
 Side 2  free  transition at x/c =  0.4820   44

  16   rms: 0.1094E-05   max: 0.8438E-05   T at   44  2
       a =  7.000      CL =  1.4305
      Cm = -0.1621     CD =  0.02668   =>   CDf =  0.00862    CDp =  0.01807

 Point added to stored polar  1
 Point written to save file  000035M0.04.log                                 
 Dump file unspecified or not available
 Calculating wake trajectory ...
 Calculating source influence matrix ...

 Solving BL system ...

 Side 1  free  transition at x/c =  0.1634   53
 Side 2  free  transition at x/c =  0.4820   44

   1   rms: 0.1260E+00   max: -.5247E+00   T at   44  2   RLX: 0.953
       a =  8.000      CL =  1.5282
      Cm = -0.1586     CD =  0.02817   =>   CDf =  0.00842    CDp =  0.01975

 Side 1  free  transition at x/c =  0.1567   54
 Side 2  free  transition at x/c =  0.4998   43

   2   rms: 0.4974E-01   max: -.2977E+00   D at   43  2
       a =  8.000      CL =  1.5363
      Cm = -0.1594     CD =  0.02870   =>   CDf =  0.00864    CDp =  0.02006

 Side 1  free  transition at x/c =  0.1566   54
 Side 2  free  transition at x/c =  0.5035   44

   3   rms: 0.7381E-02   max: 0.7578E-01   D at   44  2
       a =  8.000      CL =  1.5372
      Cm = -0.1596     CD =  0.02880   =>   CDf =  0.00872    CDp =  0.02008

 Side 1  free  transition at x/c =  0.1564   54
 Side 2  free  transition at x/c =  0.5032   44

   4   rms: 0.1603E-03   max: 0.9428E-03   D at   45  2
       a =  8.000      CL =  1.5372
      Cm = -0.1596     CD =  0.02880   =>   CDf =  0.00872    CDp =  0.02008

 Side 1  free  transition at x/c =  0.1564   54
 Side 2  free  transition at x/c =  0.5032   44

   5   rms: 0.1724E-05   max: 0.8402E-05   D at   78  2
       a =  8.000      CL =  1.5372
      Cm = -0.1596     CD =  0.02880   =>   CDf =  0.00872    CDp =  0.02008

 Point added to stored polar  1
 Point written to save file  000035M0.04.log                                 
 Dump file unspecified or not available
 Calculating wake trajectory ...
 Calculating source influence matrix ...

 Solving BL system ...

 Side 1  free  transition at x/c =  0.1564   54
 Side 2  free  transition at x/c =  0.5032   44

   1   rms: 0.1752E+00   max: -.7048E+00   T at   44  2   RLX: 0.709
       a =  9.000      CL =  1.6288
      Cm = -0.1620     CD =  0.03267   =>   CDf =  0.00849    CDp =  0.02418

 MRCHDU: Convergence failed at  55  side 1    Res =  0.4695E+02
 MRCHDU: Convergence failed at  56  side 1    Res =  0.1234E+02
 MRCHDU: Convergence failed at  57  side 1    Res =  0.4615E+01
 MRCHDU: Convergence failed at  58  side 1    Res =  0.1443E+02
 MRCHDU: Convergence failed at  59  side 1    Res =  0.2782E+02
 MRCHDU: Convergence failed at  60  side 1    Res =  0.1400E+02
 MRCHDU: Convergence failed at  61  side 1    Res =  0.1268E+02
 MRCHDU: Convergence failed at  62  side 1    Res =  0.3259E+02
 MRCHDU: Convergence failed at  63  side 1    Res =  0.2574E+02
 MRCHDU: Convergence failed at  64  side 1    Res =  0.2373E+02
 MRCHDU: Convergence failed at  65  side 1    Res =  0.4633E+02
 MRCHDU: Convergence failed at  66  side 1    Res =  0.5813E+02
 MRCHDU: Convergence failed at  67  side 1    Res =  0.2378E+03
 MRCHDU: Convergence failed at  68  side 1    Res =  0.2681E+02
 MRCHDU: Convergence failed at  69  side 1    Res =  0.2867E+02
 MRCHDU: Convergence failed at  70  side 1    Res =  0.3145E+02
 MRCHDU: Convergence failed at  71  side 1    Res =  0.9384E+02
 MRCHDU: Convergence failed at  72  side 1    Res =  0.1785E+03
 MRCHDU: Convergence failed at  73  side 1    Res =  0.8306E+02
 MRCHDU: Convergence failed at  74  side 1    Res =  0.8527E+02
 MRCHDU: Convergence failed at  75  side 1    Res =  0.6723E+02
 MRCHDU: Convergence failed at  76  side 1    Res =  0.8046E+02
 MRCHDU: Convergence failed at  77  side 1    Res =  0.7674E+03
 MRCHDU: Convergence failed at  78  side 1    Res =  0.9059E+02
 MRCHDU: Convergence failed at  79  side 1    Res =  0.9862E+02
 MRCHDU: Convergence failed at  80  side 1    Res =  0.7807E+02
 MRCHDU: Convergence failed at  81  side 1    Res =  0.2912E+02
 MRCHDU: Convergence failed at  82  side 1    Res =  0.3375E+02
 MRCHDU: Convergence failed at  83  side 1    Res =  0.4155E+02
 MRCHDU: Convergence failed at  84  side 1    Res =  0.3556E+02
 MRCHDU: Convergence failed at  85  side 1    Res =  0.1368E+03
 MRCHDU: Convergence failed at  86  side 1    Res =  0.8779E+02
 MRCHDU: Convergence failed at  87  side 1    Res =  0.2010E+03
 MRCHDU: Convergence failed at  88  side 1    Res =  0.8030E+02
 MRCHDU: Convergence failed at  89  side 1    Res =  0.5723E+02
 MRCHDU: Convergence failed at  90  side 1    Res =  0.1360E+03
 MRCHDU: Convergence failed at  91  side 1    Res =  0.4478E+02
 MRCHDU: Convergence failed at  92  side 1    Res =  0.9300E+02
 MRCHDU: Convergence failed at  93  side 1    Res =  0.1264E+03
 Side 1  free  transition at x/c =  0.1503   54
 Side 2  free  transition at x/c =  0.5255   43

   2   rms: 0.1571E+01   max: 0.7618E+01   D at   71  2   RLX: 0.197
       a =  9.000      CL =  3.0691
      Cm = -0.7398     CD =  0.00884   =>   CDf =  0.00368    CDp =  0.00516

 MRCHDU: Convergence failed at  76  side 1    Res =  0.4397E+00
 MRCHDU: Convergence failed at  77  side 1    Res =  0.4370E+00
 MRCHDU: Convergence failed at  78  side 1    Res =  0.4340E+00
 MRCHDU: Convergence failed at  79  side 1    Res =  0.4305E+00
 MRCHDU: Convergence failed at  80  side 1    Res =  0.4264E+00
 MRCHDU: Convergence failed at  81  side 1    Res =  0.4216E+00
 MRCHDU: Convergence failed at  82  side 1    Res =  0.4162E+00
 MRCHDU: Convergence failed at  83  side 1    Res =  0.4099E+00
 MRCHDU: Convergence failed at  84  side 1    Res =  0.4033E+00
 MRCHDU: Convergence failed at  85  side 1    Res =  0.3963E+00
 MRCHDU: Convergence failed at  86  side 1    Res =  0.3892E+00
 MRCHDU: Convergence failed at  87  side 1    Res =  0.3828E+00
 MRCHDU: Convergence failed at  88  side 1    Res =  0.3777E+00
 MRCHDU: Convergence failed at  89  side 1    Res =  0.3751E+00
 MRCHDU: Convergence failed at  90  side 1    Res =  0.3767E+00
 MRCHDU: Convergence failed at  91  side 1    Res =  0.3846E+00
 MRCHDU: Convergence failed at  92  side 1    Res =  0.4015E+00
 MRCHDU: Convergence failed at  93  side 1    Res =  0.4249E+00
 MRCHDU: Convergence failed at  71  side 2    Res =  0.2889E+01
 MRCHDU: Convergence failed at  72  side 2    Res =  0.6330E+01
 MRCHDU: Convergence failed at  73  side 2    Res =  0.2128E+02
 MRCHDU: Convergence failed at  74  side 2    Res =  0.6142E+01
 MRCHDU: Convergence failed at  75  side 2    Res =  0.7748E+02
 MRCHDU: Convergence failed at  76  side 2    Res =  0.2915E+02
 MRCHDU: Convergence failed at  77  side 2    Res =  0.5769E+01
 MRCHDU: Convergence failed at  78  side 2    Res =  0.3858E+01
 MRCHDU: Convergence failed at  79  side 2    Res =  0.2916E+01
 MRCHDU: Convergence failed at  80  side 2    Res =  0.7641E+01
 MRCHDU: Convergence failed at  81  side 2    Res =  0.1298E+02
 MRCHDU: Convergence failed at  82  side 2    Res =  0.2416E+02
 MRCHDU: Convergence failed at  83  side 2    Res =  0.2531E+03
 MRCHDU: Convergence failed at  84  side 2    Res =  0.5077E+01
 MRCHDU: Convergence failed at  85  side 2    Res =  0.3701E+01
 MRCHDU: Convergence failed at  86  side 2    Res =  0.2929E+01
 MRCHDU: Convergence failed at  87  side 2    Res =  0.2001E+01
 MRCHDU: Convergence failed at  88  side 2    Res =  0.1670E+01
 MRCHDU: Convergence failed at  89  side 2    Res =  0.1420E+01
 Side 1  free  transition at x/c =  0.1424   53
 Side 2  free  transition at x/c =  0.5251   43

   3   rms: 0.5807E+00   max: 0.1289E+01   T at   43  2   RLX: 0.236
       a =  9.000      CL =  1.9110
      Cm = -0.3534     CD =  0.06451   =>   CDf =  0.00415    CDp =  0.06036

 Side 1  free  transition at x/c =  0.1437   52
 Side 2  free  transition at x/c =  0.5116   44

   4   rms: 0.4914E+00   max: 0.1202E+01   D at   89  2   RLX: 0.521
       a =  9.000      CL =  1.3798
      Cm = -0.2378     CD =  0.12254   =>   CDf =  0.00428    CDp =  0.11826

 Side 1  free  transition at x/c =  0.1393   50
 Side 2  free  transition at x/c =  0.4958   45

   5   rms: 0.2047E+00   max: -.6676E+00   D at   55  1   RLX: 0.749
       a =  9.000      CL =  1.1636
      Cm = -0.1608     CD =  0.10059   =>   CDf =  0.00399    CDp =  0.09660

 Side 1  free  transition at x/c =  0.1444   50
 Side 2  free  transition at x/c =  0.4912   45

   6   rms: 0.1302E+00   max: 0.1108E+01   T at   50  1   RLX: 0.708
       a =  9.000      CL =  1.1183
      Cm = -0.1405     CD =  0.10082   =>   CDf =  0.00411    CDp =  0.09671

 Side 1  free  transition at x/c =  0.1390   50
 Side 2  free  transition at x/c =  0.4883   45

   7   rms: 0.6237E+00   max: -.1580E+01   D at   72  1   RLX: 0.290
       a =  9.000      CL =  1.2833
      Cm = -0.1374     CD =  0.07884   =>   CDf =  0.00390    CDp =  0.07494

 Side 1  free  transition at x/c =  0.1455   52
 Side 2  free  transition at x/c =  0.5006   44

   8   rms: 0.5134E+00   max: -.1420E+01   D at   74  1   RLX: 0.352
       a =  9.000      CL =  1.3822
      Cm = -0.1302     CD =  0.05844   =>   CDf =  0.00471    CDp =  0.05374

 Side 1  free  transition at x/c =  0.1485   53
 Side 2  free  transition at x/c =  0.5137   44

   9   rms: 0.9471E+00   max: -.2977E+01   D at   86  1   RLX: 0.168
       a =  9.000      CL =  1.5172
      Cm = -0.1411     CD =  0.05162   =>   CDf =  0.00520    CDp =  0.04642

 Side 1  free  transition at x/c =  0.1526   54
 Side 2  free  transition at x/c =  0.5228   43

  10   rms: 0.5939E+00   max: -.1796E+01   D at   87  1   RLX: 0.278
       a =  9.000      CL =  1.6586
      Cm = -0.1592     CD =  0.04383   =>   CDf =  0.00620    CDp =  0.03763

 Side 1  free  transition at x/c =  0.1542   54
 Side 2  free  transition at x/c =  0.5297   44

  11   rms: 0.2534E+00   max: -.9027E+00   D at   64  1   RLX: 0.554
       a =  9.000      CL =  1.7072
      Cm = -0.1669     CD =  0.03260   =>   CDf =  0.00715    CDp =  0.02546

 Side 1  free  transition at x/c =  0.1531   55
 Side 2  free  transition at x/c =  0.5312   43

  12   rms: 0.9322E-01   max: -.4549E+00   D at   90  1
       a =  9.000      CL =  1.6673
      Cm = -0.1604     CD =  0.02933   =>   CDf =  0.00810    CDp =  0.02122

 Side 1  free  transition at x/c =  0.1499   55
 Side 2  free  transition at x/c =  0.5279   42

  13   rms: 0.3118E-01   max: -.1784E+00   D at   90  1
       a =  9.000      CL =  1.6338
      Cm = -0.1552     CD =  0.03074   =>   CDf =  0.00859    CDp =  0.02215

 Side 1  free  transition at x/c =  0.1500   54
 Side 2  free  transition at x/c =  0.5251   43

  14   rms: 0.2638E-02   max: -.2673E-01   D at   89  1
       a =  9.000      CL =  1.6310
      Cm = -0.1548     CD =  0.03081   =>   CDf =  0.00832    CDp =  0.02249

 Side 1  free  transition at x/c =  0.1500   54
 Side 2  free  transition at x/c =  0.5249   43

  15   rms: 0.1171E-03   max: 0.1315E-02   D at    4  2
       a =  9.000      CL =  1.6310
      Cm = -0.1548     CD =  0.03081   =>   CDf =  0.00831    CDp =  0.02250

 Side 1  free  transition at x/c =  0.1500   54
 Side 2  free  transition at x/c =  0.5249   43

  16   rms: 0.1135E-05   max: 0.6104E-05   D at   54  2
       a =  9.000      CL =  1.6310
      Cm = -0.1548     CD =  0.03081   =>   CDf =  0.00831    CDp =  0.02250

 Point added to stored polar  1
 Point written to save file  000035M0.04.log                                 
 Dump file unspecified or not available
 Calculating wake trajectory ...
 Calculating source influence matrix ...

 Solving BL system ...

 Side 1  free  transition at x/c =  0.1500   54
 Side 2  free  transition at x/c =  0.5249   43

   1   rms: 0.1242E+00   max: -.5591E+00   T at   43  2   RLX: 0.894
       a = 10.000      CL =  1.7166
      Cm = -0.1510     CD =  0.03271   =>   CDf =  0.00808    CDp =  0.02464

 MRCHDU: Convergence failed at  44  side 2    Res =  0.2236E+01
 MRCHDU: Convergence failed at  45  side 2    Res =  0.1942E+01
 MRCHDU: Convergence failed at  46  side 2    Res =  0.1807E+01
 MRCHDU: Convergence failed at  47  side 2    Res =  0.2821E+01
 MRCHDU: Convergence failed at  48  side 2    Res =  0.3959E+01
 MRCHDU: Convergence failed at  49  side 2    Res =  0.5428E+01
 MRCHDU: Convergence failed at  50  side 2    Res =  0.7200E+01
 MRCHDU: Convergence failed at  51  side 2    Res =  0.9189E+01
 MRCHDU: Convergence failed at  52  side 2    Res =  0.1101E+02
 MRCHDU: Convergence failed at  53  side 2    Res =  0.1282E+02
 MRCHDU: Convergence failed at  54  side 2    Res =  0.1442E+02
 MRCHDU: Convergence failed at  55  side 2    Res =  0.1581E+02
 MRCHDU: Convergence failed at  56  side 2    Res =  0.1708E+02
 MRCHDU: Convergence failed at  57  side 2    Res =  0.1836E+02
 MRCHDU: Convergence failed at  58  side 2    Res =  0.1920E+02
 MRCHDU: Convergence failed at  59  side 2    Res =  0.2054E+02
 MRCHDU: Convergence failed at  60  side 2    Res =  0.2108E+02
 MRCHDU: Convergence failed at  61  side 2    Res =  0.2159E+02
 MRCHDU: Convergence failed at  62  side 2    Res =  0.2041E+02
 MRCHDU: Convergence failed at  63  side 2    Res =  0.1680E+02
 MRCHDU: Convergence failed at  64  side 2    Res =  0.1153E+02
 MRCHDU: Convergence failed at  65  side 2    Res =  0.6707E+01
 MRCHDU: Convergence failed at  66  side 2    Res =  0.3145E+01
 Side 1  free  transition at x/c =  0.1449   54
 Side 2  free  transition at x/c =  0.5515   43

   2   rms: 0.2177E+00   max: 0.1054E+01   T at   45  2
       a = 10.000      CL =  1.7059
      Cm = -0.1462     CD =  0.03226   =>   CDf =  0.00752    CDp =  0.02474

 MRCHDU: Convergence failed at  44  side 2    Res =  0.1721E+01
 MRCHDU: Convergence failed at  45  side 2    Res =  0.2592E+01
 MRCHDU: Convergence failed at  46  side 2    Res =  0.3547E+01
 Side 1  free  transition at x/c =  0.1448   54
 Side 2  free  transition at x/c =  0.5424   43

   3   rms: 0.2810E+00   max: -.1687E+01   D at   54  2   RLX: 0.296
       a = 10.000      CL =  1.7223
      Cm = -0.1497     CD =  0.03346   =>   CDf =  0.00765    CDp =  0.02581

 Side 1  free  transition at x/c =  0.1444   55
 Side 2  free  transition at x/c =  0.5524   42

   4   rms: 0.6032E-01   max: 0.7264E+00   D at   45  2
       a = 10.000      CL =  1.7253
      Cm = -0.1506     CD =  0.03344   =>   CDf =  0.00838    CDp =  0.02507

 Side 1  free  transition at x/c =  0.1444   55
 Side 2  free  transition at x/c =  0.5472   42

   5   rms: 0.7813E-02   max: -.1659E+00   D at   45  2
       a = 10.000      CL =  1.7256
      Cm = -0.1507     CD =  0.03349   =>   CDf =  0.00827    CDp =  0.02522

 Side 1  free  transition at x/c =  0.1444   55
 Side 2  free  transition at x/c =  0.5464   42

   6   rms: 0.8598E-03   max: -.1872E-01   D at   45  2
       a = 10.000      CL =  1.7255
      Cm = -0.1507     CD =  0.03348   =>   CDf =  0.00827    CDp =  0.02521

 Side 1  free  transition at x/c =  0.1444   55
 Side 2  free  transition at x/c =  0.5463   42

   7   rms: 0.1031E-04   max: -.2201E-03   D at   45  2
       a = 10.000      CL =  1.7255
      Cm = -0.1507     CD =  0.03348   =>   CDf =  0.00827    CDp =  0.02521

 Point added to stored polar  1
 Point written to save file  000035M0.04.log                                 
 Dump file unspecified or not available
 Calculating wake trajectory ...
 Calculating source influence matrix ...

 Solving BL system ...

 Side 1  free  transition at x/c =  0.1444   55
 Side 2  free  transition at x/c =  0.5463   42

   1   rms: 0.1146E+00   max: -.4952E+00   T at   42  2
       a = 11.000      CL =  1.7966
      Cm = -0.1423     CD =  0.03591   =>   CDf =  0.00801    CDp =  0.02790

 Side 1  free  transition at x/c =  0.1390   56
 Side 2  free  transition at x/c =  0.5690   42

   2   rms: 0.2321E-01   max: 0.2438E+00   D at   42  2
       a = 11.000      CL =  1.7943
      Cm = -0.1424     CD =  0.03620   =>   CDf =  0.00779    CDp =  0.02842

 Side 1  free  transition at x/c =  0.1392   56
 Side 2  free  transition at x/c =  0.5674   42

   3   rms: 0.1518E-02   max: 0.1000E-01   D at   57  1
       a = 11.000      CL =  1.7950
      Cm = -0.1424     CD =  0.03622   =>   CDf =  0.00782    CDp =  0.02840

 Side 1  free  transition at x/c =  0.1391   56
 Side 2  free  transition at x/c =  0.5671   42

   4   rms: 0.6510E-04   max: 0.2673E-03   D at   77  2
       a = 11.000      CL =  1.7950
      Cm = -0.1424     CD =  0.03622   =>   CDf =  0.00783    CDp =  0.02840

 Point added to stored polar  1
 Point written to save file  000035M0.04.log                                 
 Dump file unspecified or not available
 Calculating wake trajectory ...
 Calculating source influence matrix ...

 Solving BL system ...

 Side 1  free  transition at x/c =  0.1391   56
 Side 2  free  transition at x/c =  0.5671   42

   1   rms: 0.1105E+00   max: -.4944E+00   T at   42  2   RLX: 0.998
       a = 12.000      CL =  1.8597
      Cm = -0.1336     CD =  0.03905   =>   CDf =  0.00755    CDp =  0.03150

 Side 1  free  transition at x/c =  0.1346   56
 Side 2  free  transition at x/c =  0.5877   42

   2   rms: 0.2706E-01   max: -.1779E+00   D at   57  1
       a = 12.000      CL =  1.8654
      Cm = -0.1351     CD =  0.03955   =>   CDf =  0.00778    CDp =  0.03177

 Side 1  free  transition at x/c =  0.1346   56
 Side 2  free  transition at x/c =  0.5898   42

   3   rms: 0.1688E-02   max: 0.1569E-01   D at   57  1
       a = 12.000      CL =  1.8659
      Cm = -0.1352     CD =  0.03964   =>   CDf =  0.00782    CDp =  0.03182

 Side 1  free  transition at x/c =  0.1345   56
 Side 2  free  transition at x/c =  0.5898   42

   4   rms: 0.1031E-03   max: 0.4999E-03   D at   96  1
       a = 12.000      CL =  1.8658
      Cm = -0.1351     CD =  0.03964   =>   CDf =  0.00781    CDp =  0.03182

 Side 1  free  transition at x/c =  0.1345   56
 Side 2  free  transition at x/c =  0.5898   42

   5   rms: 0.1738E-05   max: 0.7846E-05   D at   79  2
       a = 12.000      CL =  1.8658
      Cm = -0.1351     CD =  0.03964   =>   CDf =  0.00781    CDp =  0.03182

 Point added to stored polar  1
 Point written to save file  000035M0.04.log                                 
 Dump file unspecified or not available
 Calculating wake trajectory ...
 Calculating source influence matrix ...

 Solving BL system ...

 Side 1  free  transition at x/c =  0.1345   56
 Side 2  free  transition at x/c =  0.5898   42

   1   rms: 0.1032E+00   max: -.4439E+00   T at   42  2   RLX: 0.836
       a = 13.000      CL =  1.8802
      Cm = -0.1222     CD =  0.04287   =>   CDf =  0.00751    CDp =  0.03535

 Side 1  free  transition at x/c =  0.1314   57
 Side 2  free  transition at x/c =  0.6045   41

   2   rms: 0.3299E-01   max: -.2516E+00   D at   42  2
       a = 13.000      CL =  1.8915
      Cm = -0.1224     CD =  0.04448   =>   CDf =  0.00724    CDp =  0.03723

 Side 1  free  transition at x/c =  0.1305   57
 Side 2  free  transition at x/c =  0.6136   42

   3   rms: 0.2507E-01   max: 0.3860E+00   D at   42  2
       a = 13.000      CL =  1.8925
      Cm = -0.1225     CD =  0.04437   =>   CDf =  0.00715    CDp =  0.03722

 Side 1  free  transition at x/c =  0.1304   57
 Side 2  free  transition at x/c =  0.6110   42

   4   rms: 0.2821E-02   max: 0.3646E-01   D at   42  2
       a = 13.000      CL =  1.8924
      Cm = -0.1225     CD =  0.04437   =>   CDf =  0.00715    CDp =  0.03721

 Side 1  free  transition at x/c =  0.1304   57
 Side 2  free  transition at x/c =  0.6105   42

   5   rms: 0.2228E-04   max: -.3135E-03   D at   44  2
       a = 13.000      CL =  1.8924
      Cm = -0.1225     CD =  0.04437   =>   CDf =  0.00716    CDp =  0.03721

 Point added to stored polar  1
 Point written to save file  000035M0.04.log                                 
 Dump file unspecified or not available
 Calculating wake trajectory ...
 Calculating source influence matrix ...

 Solving BL system ...

 Side 1  free  transition at x/c =  0.1304   57
 Side 2  free  transition at x/c =  0.6105   42

   1   rms: 0.1062E+00   max: -.5638E+00   T at   42  2   RLX: 0.738
       a = 14.000      CL =  1.9159
      Cm = -0.1145     CD =  0.04824   =>   CDf =  0.00719    CDp =  0.04106

 Side 1  free  transition at x/c =  0.1275   57
 Side 2  free  transition at x/c =  0.6230   42

   2   rms: 0.4729E-01   max: -.3143E+00   D at   42  2
       a = 14.000      CL =  1.9304
      Cm = -0.1132     CD =  0.04935   =>   CDf =  0.00656    CDp =  0.04279

 Side 1  free  transition at x/c =  0.1268   58
 Side 2  free  transition at x/c =  0.6357   42

   3   rms: 0.1858E-01   max: 0.2876E+00   D at   42  2
       a = 14.000      CL =  1.9321
      Cm = -0.1134     CD =  0.04922   =>   CDf =  0.00691    CDp =  0.04231

 Side 1  free  transition at x/c =  0.1268   58
 Side 2  free  transition at x/c =  0.6330   42

   4   rms: 0.1612E-02   max: 0.2091E-01   D at   42  2
       a = 14.000      CL =  1.9322
      Cm = -0.1134     CD =  0.04922   =>   CDf =  0.00692    CDp =  0.04230

 Side 1  free  transition at x/c =  0.1268   58
 Side 2  free  transition at x/c =  0.6327   42

   5   rms: 0.1501E-04   max: -.2146E-03   D at   44  2
       a = 14.000      CL =  1.9322
      Cm = -0.1134     CD =  0.04922   =>   CDf =  0.00693    CDp =  0.04229

 Point added to stored polar  1
 Point written to save file  000035M0.04.log                                 
 Dump file unspecified or not available
 Calculating wake trajectory ...
 Calculating source influence matrix ...

 Solving BL system ...

 Side 1  free  transition at x/c =  0.1268   58
 Side 2  free  transition at x/c =  0.6327   42

   1   rms: 0.1090E+00   max: -.6285E+00   T at   42  2   RLX: 0.677
       a = 15.000      CL =  1.9666
      Cm = -0.1084     CD =  0.05244   =>   CDf =  0.00696    CDp =  0.04548

 Side 1  free  transition at x/c =  0.1247   57
 Side 2  free  transition at x/c =  0.6474   42

   2   rms: 0.5604E-01   max: -.2811E+00   D at   42  2
       a = 15.000      CL =  1.9357
      Cm = -0.1030     CD =  0.05774   =>   CDf =  0.00679    CDp =  0.05095

 Side 1  free  transition at x/c =  0.1235   57
 Side 2  free  transition at x/c =  0.6560   43

   3   rms: 0.1350E-01   max: 0.2097E+00   D at   43  2
       a = 15.000      CL =  1.9344
      Cm = -0.1035     CD =  0.05786   =>   CDf =  0.00643    CDp =  0.05143

 Side 1  free  transition at x/c =  0.1234   57
 Side 2  free  transition at x/c =  0.6540   43

   4   rms: 0.9156E-03   max: 0.1197E-01   D at   43  2
       a = 15.000      CL =  1.9343
      Cm = -0.1035     CD =  0.05785   =>   CDf =  0.00641    CDp =  0.05144

 Side 1  free  transition at x/c =  0.1234   57
 Side 2  free  transition at x/c =  0.6538   43

   5   rms: 0.3688E-05   max: -.2839E-04   D at   45  2
       a = 15.000      CL =  1.9343
      Cm = -0.1035     CD =  0.05785   =>   CDf =  0.00641    CDp =  0.05144

 Point added to stored polar  1
 Point written to save file  000035M0.04.log                                 
 Dump file unspecified or not available

.OPERva   c>  
 XFOIL   c>  
0.1
resp: 
 ===================================================
  XFOIL Version 6.97
  Copyright (C) 2000   Mark Drela, Harold Youngren

  This software comes with ABSOLUTELY NO WARRANTY,
    subject to the GNU General Public License.

  Caveat computor
 ===================================================

 File  xfoil.def  not found

   QUIT    Exit program

  .OPER    Direct operating point(s)
  .MDES    Complex mapping design routine
  .QDES    Surface speed design routine
  .GDES    Geometry design routine

   SAVE f  Write airfoil to labeled coordinate file
   PSAV f  Write airfoil to plain coordinate file
   ISAV f  Write airfoil to ISES coordinate file
   MSAV f  Write airfoil to MSES coordinate file
   REVE    Reverse written-airfoil node ordering
   DELI i  Change written-airfoil file delimiters

   LOAD f  Read buffer airfoil from coordinate file
   NACA i  Set NACA 4,5-digit airfoil and buffer airfoil
   INTE    Set buffer airfoil by interpolating two airfoils
   NORM    Buffer airfoil normalization toggle
   HALF    Halve the number of points in buffer airfoil
   XYCM rr Change CM reference location, currently  0.25000 0.00000

   BEND    Display structural properties of current airfoil

   PCOP    Set current-airfoil panel nodes directly from buffer airfoil points
   PANE    Set current-airfoil panel nodes ( 160 ) based on curvature
  .PPAR    Show/change paneling

  .PLOP    Plotting options

   WDEF f  Write  current-settings file
   RDEF f  Reread current-settings file
   NAME s  Specify new airfoil name
   NINC    Increment name version number

   Z       Zoom    | (available in all menus)
   U       Unzoom  | 

 XFOIL   c>   ...............................................

  G raphics-enable flag:        T
  S ize of plot object          10.00"
  A spect ratio of plot object   0.5500
  P age dimensions              11.00 x  8.50"
  M argins from page edges       0.00",  0.00"
  F ont size (relative)          0.0150
  W indow/screen size fraction   0.8000
  B lowup input method:        Cursor    
  O rientation of plot:        Landscape 
  C olor PostScript output?     F

      Option, Value   (or <Return>)    c>   ...............................................

  G raphics-enable flag:        F
  S ize of plot object          10.00"
  A spect ratio of plot object   0.5500
  P age dimensions              11.00 x  8.50"
  M argins from page edges       0.00",  0.00"
  F ont size (relative)          0.0150
  W indow/screen size fraction   0.8000
  B lowup input method:        Cursor    
  O rientation of plot:        Landscape 
  C olor PostScript output?     F

      Option, Value   (or <Return>)    c>  
 XFOIL   c>  
 Labeled airfoil file.  Name:  000035                                          

 Number of input coordinate points: 200
 Clockwise ordering
 Max thickness =     0.209240  at x =   0.181
 Max camber    =     0.045033  at x =   0.741

  LE  x,y  =  -0.00000   0.00041  |   Chord =   0.99988
  TE  x,y  =   0.99988   0.00006  |

 Current airfoil nodes set from buffer airfoil nodes ( 200 )

 XFOIL   c>  
 You are working with the buffer airfoil

.GDES   c>  
  i       x        y      angle
   2   0.9990   0.0005    0.088
   3   0.9978   0.0011    0.171
   4   0.9961   0.0019    0.191
   5   0.9938   0.0030    0.243
   6   0.9911   0.0043    0.324
   7   0.9880   0.0058    0.332
   8   0.9843   0.0075    0.399
   9   0.9801   0.0094    0.440
  10   0.9755   0.0115    0.481
  11   0.9704   0.0137    0.523
  12   0.9649   0.0161    0.567
  13   0.9589   0.0186    0.591
  14   0.9524   0.0212    0.650
  15   0.9455   0.0239    0.661
  16   0.9382   0.0267    0.692
  17   0.9304   0.0295    0.727
  18   0.9222   0.0323    0.741
  19   0.9135   0.0352    0.765
  20   0.9045   0.0381    0.771
  21   0.8951   0.0410    0.789
  22   0.8853   0.0438    0.786
  23   0.8751   0.0466    0.800
  24   0.8645   0.0494    0.785
  25   0.8536   0.0521    0.786
  26   0.8423   0.0547    0.772
  27   0.8307   0.0572    0.752
  28   0.8187   0.0596    0.737
  29   0.8065   0.0620    0.713
  30   0.7939   0.0642    0.686
  31   0.7810   0.0663    0.650
  32   0.7679   0.0683    0.621
  33   0.7545   0.0702    0.589
  34   0.7409   0.0720    0.541
  35   0.7270   0.0737    0.502
  36   0.7129   0.0753    0.462
  37   0.6986   0.0768    0.420
  38   0.6841   0.0782    0.374
  39   0.6694   0.0796    0.326
  40   0.6545   0.0808    0.288
  41   0.6395   0.0820    0.237
  42   0.6243   0.0832    0.202
  43   0.6091   0.0843    0.151
  44   0.5937   0.0854    0.120
  45   0.5782   0.0864    0.078
  46   0.5627   0.0874    0.044
  47   0.5471   0.0885    0.011
  48   0.5314   0.0895   -0.011
  49   0.5157   0.0905   -0.044
  50   0.5000   0.0916   -0.062
  51   0.4843   0.0926   -0.073
  52   0.4686   0.0937   -0.091
  53   0.4529   0.0948   -0.092
  54   0.4373   0.0959   -0.094
  55   0.4218   0.0971   -0.091
  56   0.4063   0.0982   -0.081
  57   0.3909   0.0994   -0.061
  58   0.3757   0.1006   -0.036
  59   0.3605   0.1018   -0.015
  60   0.3455   0.1029    0.024
  61   0.3306   0.1041    0.073
  62   0.3159   0.1052    0.114
  63   0.3014   0.1063    0.181
  64   0.2871   0.1073    0.234
  65   0.2730   0.1083    0.312
  66   0.2591   0.1091    0.394
  67   0.2455   0.1099    0.474
  68   0.2321   0.1105    0.578
  69   0.2190   0.1110    0.676
  70   0.2061   0.1113    0.797
  71   0.1935   0.1115    0.910
  72   0.1813   0.1114    1.048
  73   0.1693   0.1111    1.185
  74   0.1577   0.1106    1.336
  75   0.1464   0.1099    1.497
  76   0.1355   0.1088    1.664
  77   0.1249   0.1075    1.849
  78   0.1147   0.1059    2.028
  79   0.1049   0.1041    2.227
  80   0.0955   0.1019    2.422
  81   0.0865   0.0994    2.625
  82   0.0778   0.0965    2.836
  83   0.0696   0.0934    3.028
  84   0.0618   0.0899    3.233
  85   0.0545   0.0861    3.414
  86   0.0476   0.0820    3.598
  87   0.0411   0.0776    3.739
  88   0.0351   0.0729    3.887
  89   0.0296   0.0679    4.001
  90   0.0245   0.0627    4.083
  91   0.0199   0.0572    4.152
  92   0.0157   0.0514    4.211
  93   0.0120   0.0455    4.216
  94   0.0089   0.0394    4.244
  95   0.0062   0.0331    4.236
  96   0.0039   0.0266    4.224
  97   0.0022   0.0201    4.227
  98   0.0010   0.0134    4.206
  99   0.0002   0.0067    4.200
 100   0.0000   0.0000    4.712
 101   0.0002  -0.0054    5.190
 102   0.0010  -0.0108    5.119
 103   0.0022  -0.0162    5.024
 104   0.0039  -0.0215    4.875
 105   0.0062  -0.0268    4.708
 106   0.0089  -0.0320    4.538
 107   0.0120  -0.0370    4.316
 108   0.0157  -0.0420    4.132
 109   0.0199  -0.0469    3.922
 110   0.0245  -0.0516    3.722
 111   0.0296  -0.0561    3.534
 112   0.0351  -0.0605    3.346
 113   0.0411  -0.0647    3.176
 114   0.0476  -0.0687    3.013
 115   0.0545  -0.0725    2.859
 116   0.0618  -0.0761    2.715
 117   0.0696  -0.0794    2.578
 118   0.0778  -0.0825    2.452
 119   0.0865  -0.0853    2.337
 120   0.0955  -0.0879    2.215
 121   0.1049  -0.0902    2.116
 122   0.1147  -0.0922    2.016
 123   0.1249  -0.0939    1.918
 124   0.1355  -0.0953    1.818
 125   0.1464  -0.0964    1.745
 126   0.1577  -0.0972    1.646
 127   0.1693  -0.0977    1.569
 128   0.1813  -0.0978    1.488
 129   0.1935  -0.0977    1.405
 130   0.2061  -0.0972    1.336
 131   0.2190  -0.0964    1.256
 132   0.2321  -0.0954    1.185
 133   0.2455  -0.0940    1.107
 134   0.2591  -0.0923    1.042
 135   0.2730  -0.0904    0.968
 136   0.2871  -0.0881    0.898
 137   0.3014  -0.0856    0.829
[...]

 MRCHDU: Convergence failed at  65  side 2    Res =  0.1635E+00
 MRCHDU: Convergence failed at  66  side 2    Res =  0.4826E+00
 Side 1  free  transition at x/c =  0.1596   51
 Side 2  free  transition at x/c =  0.4660   45

   9   rms: 0.3125E+01   max: 0.9759E+01   D at   71  1   RLX: 0.128
       a =  7.000      CL =  0.8395
      Cm = -0.1479     CD =  0.13222   =>   CDf =  0.00387    CDp =  0.12836

 Side 1  free  transition at x/c =  0.1549   47
 Side 2  free  transition at x/c =  0.4386   47

  10   rms: 0.3510E+00   max: -.1308E+01   D at   73  2   RLX: 0.382
       a =  7.000      CL =  0.8911
      Cm = -0.1352     CD =  0.11465   =>   CDf =  0.00325    CDp =  0.11140

 Side 1  free  transition at x/c =  0.1513   48
 Side 2  free  transition at x/c =  0.4534   47

  11   rms: 0.1071E+01   max: -.2154E+01   D at   72  2   RLX: 0.200
       a =  7.000      CL =  1.0870
      Cm = -0.1376     CD =  0.08945   =>   CDf =  0.00328    CDp =  0.08618

 Side 1  free  transition at x/c =  0.1615   51
 Side 2  free  transition at x/c =  0.4649   45

  12   rms: 0.5029E+01   max: 0.7801E+02   T at    2  1   RLX: 0.015
       a =  7.000      CL =  1.0451
      Cm = -0.1245     CD =  0.04840   =>   CDf =  0.00472    CDp =  0.04369

 Side 1  free  transition at x/c =  0.1631   51
 Side 2  free  transition at x/c =  0.4673   45

  13   rms: 0.2580E+01   max: 0.1298E+02   T at   51  1   RLX: 0.116
       a =  7.000      CL =  1.1216
      Cm = -0.1549     CD =  0.07571   =>   CDf =  0.00490    CDp =  0.07081

 MRCHDU: Convergence failed at  51  side 1    Res =  0.2168E+02
 MRCHDU: Convergence failed at  52  side 1    Res =  0.4594E+01
 MRCHDU: Convergence failed at  68  side 1    Res =  0.1278E+02
 MRCHDU: Convergence failed at  69  side 1    Res =  0.2003E+01
 MRCHDU: Convergence failed at  70  side 1    Res =  0.1904E+01
 MRCHDU: Convergence failed at  71  side 1    Res =  0.1898E+01
 MRCHDU: Convergence failed at  72  side 1    Res =  0.2048E+01
 MRCHDU: Convergence failed at  73  side 1    Res =  0.2306E+01
 MRCHDU: Convergence failed at  74  side 1    Res =  0.2663E+01
 MRCHDU: Convergence failed at  75  side 1    Res =  0.3113E+01
 MRCHDU: Convergence failed at  76  side 1    Res =  0.3698E+01
 MRCHDU: Convergence failed at  77  side 1    Res =  0.4428E+01
 MRCHDU: Convergence failed at  78  side 1    Res =  0.5411E+01
 MRCHDU: Convergence failed at  79  side 1    Res =  0.6497E+01
 MRCHDU: Convergence failed at  80  side 1    Res =  0.7785E+01
 MRCHDU: Convergence failed at  81  side 1    Res =  0.9345E+01
 MRCHDU: Convergence failed at  82  side 1    Res =  0.1120E+02
 MRCHDU: Convergence failed at  83  side 1    Res =  0.1340E+02
 MRCHDU: Convergence failed at  84  side 1    Res =  0.1611E+02
 MRCHDU: Convergence failed at  85  side 1    Res =  0.2133E+02
 MRCHDU: Convergence failed at  86  side 1    Res =  0.2606E+02
 MRCHDU: Convergence failed at  87  side 1    Res =  0.3180E+02
 MRCHDU: Convergence failed at  88  side 1    Res =  0.3459E+02
 MRCHDU: Convergence failed at  89  side 1    Res =  0.3911E+02
 Side 1  free  transition at x/c =  0.1507   50
 Side 2  free  transition at x/c =  0.4712   45

  14   rms: 0.6762E+00   max: -.2872E+01   T at   45  2   RLX: 0.174
       a =  7.000      CL =  1.3425
      Cm = -0.2263     CD =  0.05066   =>   CDf =  0.00370    CDp =  0.04696

 MRCHDU: Convergence failed at  47  side 2    Res =  0.2543E+01
 MRCHDU: Convergence failed at  48  side 2    Res =  0.6998E+01
 MRCHDU: Convergence failed at  49  side 2    Res =  0.1083E+02
 MRCHDU: Convergence failed at  50  side 2    Res =  0.2561E+02
 MRCHDU: Convergence failed at  53  side 2    Res =  0.3747E+01
 MRCHDU: Convergence failed at  54  side 2    Res =  0.2271E+01
 MRCHDU: Convergence failed at  55  side 2    Res =  0.1813E+01
 MRCHDU: Convergence failed at  56  side 2    Res =  0.1726E+01
 MRCHDU: Convergence failed at  57  side 2    Res =  0.1836E+01
 MRCHDU: Convergence failed at  58  side 2    Res =  0.2011E+01
 MRCHDU: Convergence failed at  59  side 2    Res =  0.2168E+01
 MRCHDU: Convergence failed at  60  side 2    Res =  0.2398E+01
 MRCHDU: Convergence failed at  61  side 2    Res =  0.2729E+01
 MRCHDU: Convergence failed at  62  side 2    Res =  0.3200E+01
 MRCHDU: Convergence failed at  63  side 2    Res =  0.4279E+01
 MRCHDU: Convergence failed at  64  side 2    Res =  0.6794E+01
 MRCHDU: Convergence failed at  65  side 2    Res =  0.5118E+02
 MRCHDU: Convergence failed at  66  side 2    Res =  0.1248E+02
 MRCHDU: Convergence failed at  67  side 2    Res =  0.4683E+01
 MRCHDU: Convergence failed at  68  side 2    Res =  0.4249E+01
 MRCHDU: Convergence failed at  69  side 2    Res =  0.2356E+01
 Side 1  free  transition at x/c =  0.1536   50
 Side 2  free  transition at x/c =  0.4985   46

  15   rms: 0.4832E+00   max: 0.3222E+01   T at   50  1   RLX: 0.292
       a =  7.000      CL =  1.2131
      Cm = -0.1326     CD =  0.06128   =>   CDf =  0.00582    CDp =  0.05546

 Side 1  free  transition at x/c =  0.1452   50
 Side 2  free  transition at x/c =  0.4853   46

  16   rms: 0.2817E+00   max: -.4918E+00   D at   72  2   RLX: 0.599
       a =  7.000      CL =  1.2188
      Cm = -0.1415     CD =  0.07245   =>   CDf =  0.00542    CDp =  0.06703

 Side 1  free  transition at x/c =  0.1469   50
 Side 2  free  transition at x/c =  0.4754   46

  17   rms: 0.3418E+00   max: -.1152E+01   D at   72  1   RLX: 0.434
       a =  7.000      CL =  1.2664
      Cm = -0.1366     CD =  0.05567   =>   CDf =  0.00478    CDp =  0.05089

 Side 1  free  transition at x/c =  0.1512   51
 Side 2  free  transition at x/c =  0.4788   45

  18   rms: 0.1467E+01   max: -.5936E+01   T at   51  1   RLX: 0.084
       a =  7.000      CL =  1.3156
      Cm = -0.1389     CD =  0.04852   =>   CDf =  0.00531    CDp =  0.04321

 Side 1  free  transition at x/c =  0.1582   52
 Side 2  free  transition at x/c =  0.4825   45

  19   rms: 0.2850E+00   max: -.1108E+01   D at   57  1   RLX: 0.451
       a =  7.000      CL =  1.3897
      Cm = -0.1518     CD =  0.03176   =>   CDf =  0.00679    CDp =  0.02497

 Side 1  free  transition at x/c =  0.1623   53
 Side 2  free  transition at x/c =  0.4838   44

  20   rms: 0.1962E+00   max: 0.1495E+01   D at    2  1   RLX: 0.569
       a =  7.000      CL =  1.4402
      Cm = -0.1611     CD =  0.02832   =>   CDf =  0.00775    CDp =  0.02057

 Side 1  free  transition at x/c =  0.1642   53
 Side 2  free  transition at x/c =  0.4839   44

  21   rms: 0.6773E-01   max: -.4360E+00   D at   57  1
       a =  7.000      CL =  1.4462
      Cm = -0.1632     CD =  0.02654   =>   CDf =  0.00838    CDp =  0.01815

 Side 1  free  transition at x/c =  0.1629   53
 Side 2  free  transition at x/c =  0.4819   44

  22   rms: 0.9572E-02   max: -.3360E-01   D at   46  2
       a =  7.000      CL =  1.4372
      Cm = -0.1618     CD =  0.02701   =>   CDf =  0.00856    CDp =  0.01845

 Side 1  free  transition at x/c =  0.1625   53
 Side 2  free  transition at x/c =  0.4813   44

  23   rms: 0.1640E-03   max: -.1233E-02   D at   46  2
       a =  7.000      CL =  1.4371
      Cm = -0.1618     CD =  0.02701   =>   CDf =  0.00857    CDp =  0.01845

 Side 1  free  transition at x/c =  0.1625   53
 Side 2  free  transition at x/c =  0.4812   44

  24   rms: 0.1050E-05   max: 0.6407E-05   D at   44  2
       a =  7.000      CL =  1.4371
      Cm = -0.1618     CD =  0.02701   =>   CDf =  0.00857    CDp =  0.01845

 Point added to stored polar  1
 Point written to save file  000035M0.1.log                                  
 Dump file unspecified or not available
 Calculating wake trajectory ...
 Calculating source influence matrix ...

 Solving BL system ...

 Side 1  free  transition at x/c =  0.1625   53
 Side 2  free  transition at x/c =  0.4812   44

   1   rms: 0.1262E+00   max: -.5395E+00   T at   44  2   RLX: 0.927
       a =  8.000      CL =  1.5328
      Cm = -0.1583     CD =  0.02849   =>   CDf =  0.00837    CDp =  0.02012

 Side 1  free  transition at x/c =  0.1562   54
 Side 2  free  transition at x/c =  0.4989   43

   2   rms: 0.4702E-01   max: -.3035E+00   D at   43  2
       a =  8.000      CL =  1.5458
      Cm = -0.1596     CD =  0.02970   =>   CDf =  0.00860    CDp =  0.02111

 Side 1  free  transition at x/c =  0.1556   53
 Side 2  free  transition at x/c =  0.5026   44

   3   rms: 0.6204E-02   max: -.5436E-01   D at   53  1
       a =  8.000      CL =  1.5434
      Cm = -0.1590     CD =  0.02934   =>   CDf =  0.00865    CDp =  0.02068

 Side 1  free  transition at x/c =  0.1557   53
 Side 2  free  transition at x/c =  0.5020   44

   4   rms: 0.3800E-03   max: 0.3188E-02   D at   54  1
       a =  8.000      CL =  1.5433
      Cm = -0.1590     CD =  0.02932   =>   CDf =  0.00863    CDp =  0.02069

 Side 1  free  transition at x/c =  0.1556   53
 Side 2  free  transition at x/c =  0.5020   44

   5   rms: 0.9578E-05   max: 0.3834E-04   D at   90  1
       a =  8.000      CL =  1.5433
      Cm = -0.1590     CD =  0.02932   =>   CDf =  0.00863    CDp =  0.02069

 Point added to stored polar  1
 Point written to save file  000035M0.1.log                                  
 Dump file unspecified or not available
 Calculating wake trajectory ...
 Calculating source influence matrix ...

 Solving BL system ...

 Side 1  free  transition at x/c =  0.1556   53
 Side 2  free  transition at x/c =  0.5020   44

   1   rms: 0.1568E+00   max: -.7546E+00   T at   44  2   RLX: 0.663
       a =  9.000      CL =  1.6124
      Cm = -0.1572     CD =  0.02997   =>   CDf =  0.00841    CDp =  0.02157

 Side 1  free  transition at x/c =  0.1510   54
 Side 2  free  transition at x/c =  0.5273   43

   2   rms: 0.3765E-01   max: -.1226E+00   D at   55  1
       a =  9.000      CL =  1.6368
      Cm = -0.1539     CD =  0.03132   =>   CDf =  0.00825    CDp =  0.02307

 Side 1  free  transition at x/c =  0.1492   54
 Side 2  free  transition at x/c =  0.5240   43

   3   rms: 0.1577E-02   max: -.1022E-01   D at   54  1
       a =  9.000      CL =  1.6371
      Cm = -0.1539     CD =  0.03133   =>   CDf =  0.00824    CDp =  0.02309

 Side 1  free  transition at x/c =  0.1492   54
 Side 2  free  transition at x/c =  0.5238   43

   4   rms: 0.3758E-04   max: -.1717E-03   D at   72  2
       a =  9.000      CL =  1.6372
      Cm = -0.1539     CD =  0.03133   =>   CDf =  0.00824    CDp =  0.02309

 Point added to stored polar  1
 Point written to save file  000035M0.1.log                                  
 Dump file unspecified or not available
 Calculating wake trajectory ...
 Calculating source influence matrix ...

 Solving BL system ...

 Side 1  free  transition at x/c =  0.1492   54
 Side 2  free  transition at x/c =  0.5238   43

   1   rms: 0.1235E+00   max: -.5438E+00   T at   43  2   RLX: 0.919
       a = 10.000      CL =  1.7254
      Cm = -0.1498     CD =  0.03333   =>   CDf =  0.00801    CDp =  0.02532

 Side 1  free  transition at x/c =  0.1444   54
 Side 2  free  transition at x/c =  0.5499   43

   2   rms: 0.4292E-01   max: 0.5713E+00   D at   43  2
       a = 10.000      CL =  1.7292
      Cm = -0.1493     CD =  0.03405   =>   CDf =  0.00786    CDp =  0.02619

 Side 1  free  transition at x/c =  0.1437   55
 Side 2  free  transition at x/c =  0.5490   42

   3   rms: 0.9792E-02   max: 0.9555E-01   D at   43  2
       a = 10.000      CL =  1.7282
      Cm = -0.1490     CD =  0.03417   =>   CDf =  0.00810    CDp =  0.02608

 Side 1  free  transition at x/c =  0.1436   55
 Side 2  free  transition at x/c =  0.5449   42

   4   rms: 0.7908E-03   max: -.5847E-02   D at   42  2
       a = 10.000      CL =  1.7282
      Cm = -0.1490     CD =  0.03418   =>   CDf =  0.00811    CDp =  0.02607

 Side 1  free  transition at x/c =  0.1436   55
 Side 2  free  transition at x/c =  0.5448   42

   5   rms: 0.1924E-05   max: -.2202E-04   D at    2  1
       a = 10.000      CL =  1.7282
      Cm = -0.1490     CD =  0.03418   =>   CDf =  0.00811    CDp =  0.02607

 Point added to stored polar  1
 Point written to save file  000035M0.1.log                                  
 Dump file unspecified or not available
 Calculating wake trajectory ...
 Calculating source influence matrix ...

 Solving BL system ...

 Side 1  free  transition at x/c =  0.1436   55
 Side 2  free  transition at x/c =  0.5448   42

   1   rms: 0.1141E+00   max: -.4830E+00   T at   42  2
       a = 11.000      CL =  1.7960
      Cm = -0.1400     CD =  0.03707   =>   CDf =  0.00785    CDp =  0.02922

 Side 1  free  transition at x/c =  0.1380   56
 Side 2  free  transition at x/c =  0.5656   42

   2   rms: 0.2041E-01   max: -.1763E+00   D at   57  1
       a = 11.000      CL =  1.7930
      Cm = -0.1398     CD =  0.03708   =>   CDf =  0.00768    CDp =  0.02940

 Side 1  free  transition at x/c =  0.1384   56
 Side 2  free  transition at x/c =  0.5654   42

   3   rms: 0.1578E-02   max: 0.6710E-02   D at   57  1
       a = 11.000      CL =  1.7948
      Cm = -0.1401     CD =  0.03709   =>   CDf =  0.00772    CDp =  0.02937

 Side 1  free  transition at x/c =  0.1383   56
 Side 2  free  transition at x/c =  0.5655   42

   4   rms: 0.8574E-04   max: 0.4317E-03   D at   73  2
       a = 11.000      CL =  1.7948
      Cm = -0.1401     CD =  0.03709   =>   CDf =  0.00772    CDp =  0.02937

 Point added to stored polar  1
 Point written to save file  000035M0.1.log                                  
 Dump file unspecified or not available
 Calculating wake trajectory ...
 Calculating source influence matrix ...

 Solving BL system ...

 Side 1  free  transition at x/c =  0.1383   56
 Side 2  free  transition at x/c =  0.5655   42

   1   rms: 0.1076E+00   max: -.4859E+00   T at   42  2   RLX: 0.940
       a = 12.000      CL =  1.8476
      Cm = -0.1302     CD =  0.03981   =>   CDf =  0.00745    CDp =  0.03236

 Side 1  free  transition at x/c =  0.1345   56
 Side 2  free  transition at x/c =  0.5829   42

   2   rms: 0.5289E-01   max: -.3293E+00   T at   42  2
       a = 12.000      CL =  1.8572
      Cm = -0.1317     CD =  0.04080   =>   CDf =  0.00765    CDp =  0.03314

 Side 1  free  transition at x/c =  0.1340   56
 Side 2  free  transition at x/c =  0.5899   42

   3   rms: 0.7334E-02   max: -.8194E-01   D at   44  2
       a = 12.000      CL =  1.8575
      Cm = -0.1316     CD =  0.04090   =>   CDf =  0.00756    CDp =  0.03334

 Side 1  free  transition at x/c =  0.1340   56
 Side 2  free  transition at x/c =  0.5877   42

   4   rms: 0.8146E-03   max: -.8205E-02   D at   42  2
       a = 12.000      CL =  1.8574
      Cm = -0.1316     CD =  0.04091   =>   CDf =  0.00759    CDp =  0.03332

 Side 1  free  transition at x/c =  0.1340   56
 Side 2  free  transition at x/c =  0.5877   42

   5   rms: 0.3119E-05   max: -.2852E-04   D at   44  2
       a = 12.000      CL =  1.8574
      Cm = -0.1316     CD =  0.04091   =>   CDf =  0.00759    CDp =  0.03332

 Point added to stored polar  1
 Point written to save file  000035M0.1.log                                  
 Dump file unspecified or not available
 Calculating wake trajectory ...
 Calculating source influence matrix ...

 Solving BL system ...

 Side 1  free  transition at x/c =  0.1340   56
 Side 2  free  transition at x/c =  0.5877   42

   1   rms: 0.1059E+00   max: -.4755E+00   T at   42  2   RLX: 0.797
       a = 13.000      CL =  1.8744
      Cm = -0.1203     CD =  0.04465   =>   CDf =  0.00762    CDp =  0.03703

 Side 1  free  transition at x/c =  0.1306   56
 Side 2  free  transition at x/c =  0.6015   42

   2   rms: 0.3481E-01   max: -.2198E+00   D at   43  2
       a = 13.000      CL =  1.8801
      Cm = -0.1190     CD =  0.04634   =>   CDf =  0.00672    CDp =  0.03963

 Side 1  free  transition at x/c =  0.1297   57
 Side 2  free  transition at x/c =  0.6092   42

   3   rms: 0.1112E-01   max: 0.1749E+00   D at   42  2
       a = 13.000      CL =  1.8815
      Cm = -0.1192     CD =  0.04625   =>   CDf =  0.00698    CDp =  0.03927

 Side 1  free  transition at x/c =  0.1297   57
 Side 2  free  transition at x/c =  0.6081   42

   4   rms: 0.8572E-03   max: 0.9527E-02   D at   42  2
       a = 13.000      CL =  1.8815
      Cm = -0.1192     CD =  0.04624   =>   CDf =  0.00697    CDp =  0.03927

 Side 1  free  transition at x/c =  0.1297   57
 Side 2  free  transition at x/c =  0.6080   42

   5   rms: 0.3556E-05   max: 0.3838E-04   D at   42  2
       a = 13.000      CL =  1.8815
      Cm = -0.1192     CD =  0.04624   =>   CDf =  0.00697    CDp =  0.03927

 Point added to stored polar  1
 Point written to save file  000035M0.1.log                                  
 Dump file unspecified or not available
 Calculating wake trajectory ...
 Calculating source influence matrix ...

 Solving BL system ...

 Side 1  free  transition at x/c =  0.1297   57
 Side 2  free  transition at x/c =  0.6080   42

   1   rms: 0.1073E+00   max: -.6085E+00   T at   42  2   RLX: 0.696
       a = 14Got result {'DD': 0.02009, 'Dmin': 0.02101, 'LL': -0.8539}
Completed successfully in 2.83 seconds. [{'DD': 0.02009, 'Dmin': 0.02101, 'LL': -0.8539}]
.000      CL =  1.9019
      Cm = -0.1118     CD =  0.05019   =>   CDf =  0.00700    CDp =  0.04318

 Side 1  free  transition at x/c =  0.1271   57
 Side 2  free  transition at x/c =  0.6205   42

   2   rms: 0.4698E-01   max: -.2879E+00   D at   42  2
       a = 14.000      CL =  1.9192
      Cm = -0.1102     CD =  0.05156   =>   CDf =  0.00639    CDp =  0.04516

 Side 1  free  transition at x/c =  0.1262   58
 Side 2  free  transition at x/c =  0.6310   42

   3   rms: 0.5425E-02   max: 0.7617E-01   D at   42  2
       a = 14.000      CL =  1.9209
      Cm = -0.1104     CD =  0.05147   =>   CDf =  0.00678    CDp =  0.04469

 Side 1  free  transition at x/c =  0.1262   58
 Side 2  free  transition at x/c =  0.6302   42

   4   rms: 0.3886E-03   max: 0.3220E-02   D at   42  2
       a = 14.000      CL =  1.9211
      Cm = -0.1104     CD =  0.05148   =>   CDf =  0.00680    CDp =  0.04468

 Side 1  free  transition at x/c =  0.1262   58
 Side 2  free  transition at x/c =  0.6301   42

   5   rms: 0.4063E-05   max: -.5505E-04   D at    2  1
       a = 14.000      CL =  1.9211
      Cm = -0.1104     CD =  0.05148   =>   CDf =  0.00680    CDp =  0.04468

 Point added to stored polar  1
 Point written to save file  000035M0.1.log                                  
 Dump file unspecified or not available
 Calculating wake trajectory ...
 Calculating source influence matrix ...

 Solving BL system ...

 Side 1  free  transition at x/c =  0.1262   58
 Side 2  free  transition at x/c =  0.6301   42

   1   rms: 0.1131E+00   max: -.6207E+00   T at   42  2   RLX: 0.645
       a = 15.000      CL =  1.9562
      Cm = -0.1063     CD =  0.05500   =>   CDf =  0.00683    CDp =  0.04816

 Side 1  free  transition at x/c =  0.1243   57
 Side 2  free  transition at x/c =  0.6458   42

   2   rms: 0.7470E-01   max: 0.3218E+00   D at   92  1
       a = 15.000      CL =  1.8991
      Cm = -0.0995     CD =  0.06249   =>   CDf =  0.00651    CDp =  0.05598

 Side 1  free  transition at x/c =  0.1230   57
 Side 2  free  transition at x/c =  0.6485   42

   3   rms: 0.9896E-02   max: 0.1006E+00   D at   90  1
       a = 15.000      CL =  1.8953
      Cm = -0.1003     CD =  0.06293   =>   CDf =  0.00612    CDp =  0.05681

 Side 1  free  transition at x/c =  0.1229   57
 Side 2  free  transition at x/c =  0.6483   42

   4   rms: 0.1399E-02   max: 0.1577E-01   D at   89  1
       a = 15.000      CL =  1.8942
      Cm = -0.1003     CD =  0.06292   =>   CDf =  0.00606    CDp =  0.05685

 Side 1  free  transition at x/c =  0.1229   57
 Side 2  free  transition at x/c =  0.6482   42

   5   rms: 0.2958E-04   max: -.3035E-03   D at   43  2
       a = 15.000      CL =  1.8942
      Cm = -0.1003     CD =  0.06291   =>   CDf =  0.00606    CDp =  0.05685

 Point added to stored polar  1
 Point written to save file  000035M0.1.log                                  
 Dump file unspecified or not available

.OPERva   c>  
 XFOIL   c>  
