Job launching after 0.29 seconds in submission.
Running python job.
Changed into dir /home/simonx/Documents/Udacity/Projects/capstone/PESM_NSGA2_CST_XFoil
Importing evaluationFunctionXFoil.py
Running evaluationFunctionXFoil.main()
0
1
2
0.04
resp: 
 ===================================================
  XFOIL Version 6.97
  Copyright (C) 2000   Mark Drela, Harold Youngren

  This software comes with ABSOLUTELY NO WARRANTY,
    subject to the GNU General Public License.

  Caveat computor
 ===================================================

 File  xfoil.def  not found

   QUIT    Exit program

  .OPER    Direct operating point(s)
  .MDES    Complex mapping design routine
  .QDES    Surface speed design routine
  .GDES    Geometry design routine

   SAVE f  Write airfoil to labeled coordinate file
   PSAV f  Write airfoil to plain coordinate file
   ISAV f  Write airfoil to ISES coordinate file
   MSAV f  Write airfoil to MSES coordinate file
   REVE    Reverse written-airfoil node ordering
   DELI i  Change written-airfoil file delimiters

   LOAD f  Read buffer airfoil from coordinate file
   NACA i  Set NACA 4,5-digit airfoil and buffer airfoil
   INTE    Set buffer airfoil by interpolating two airfoils
   NORM    Buffer airfoil normalization toggle
   HALF    Halve the number of points in buffer airfoil
   XYCM rr Change CM reference location, currently  0.25000 0.00000

   BEND    Display structural properties of current airfoil

   PCOP    Set current-airfoil panel nodes directly from buffer airfoil points
   PANE    Set current-airfoil panel nodes ( 160 ) based on curvature
  .PPAR    Show/change paneling

  .PLOP    Plotting options

   WDEF f  Write  current-settings file
   RDEF f  Reread current-settings file
   NAME s  Specify new airfoil name
   NINC    Increment name version number

   Z       Zoom    | (available in all menus)
   U       Unzoom  | 

 XFOIL   c>   ...............................................

  G raphics-enable flag:        T
  S ize of plot object          10.00"
  A spect ratio of plot object   0.5500
  P age dimensions              11.00 x  8.50"
  M argins from page edges       0.00",  0.00"
  F ont size (relative)          0.0150
  W indow/screen size fraction   0.8000
  B lowup input method:        Cursor    
  O rientation of plot:        Landscape 
  C olor PostScript output?     F

      Option, Value   (or <Return>)    c>   ...............................................

  G raphics-enable flag:        F
  S ize of plot object          10.00"
  A spect ratio of plot object   0.5500
  P age dimensions              11.00 x  8.50"
  M argins from page edges       0.00",  0.00"
  F ont size (relative)          0.0150
  W indow/screen size fraction   0.8000
  B lowup input method:        Cursor    
  O rientation of plot:        Landscape 
  C olor PostScript output?     F

      Option, Value   (or <Return>)    c>  
 XFOIL   c>  
 Labeled airfoil file.  Name:  000046                                          

 Number of input coordinate points: 200
 Clockwise ordering
 Max thickness =     0.168809  at x =   0.193
 Max camber    =     0.054732  at x =   0.640

  LE  x,y  =  -0.00005  -0.00188  |   Chord =   0.99992
  TE  x,y  =   0.99988   0.00004  |

 Current airfoil nodes set from buffer airfoil nodes ( 200 )

 XFOIL   c>  
 You are working with the buffer airfoil

.GDES   c>  
  i       x        y      angle
   2   0.9990   0.0003   -0.002
   3   0.9978   0.0007   -0.093
   4   0.9961   0.0012   -0.025
   5   0.9938   0.0018   -0.086
   6   0.9911   0.0026   -0.081
   7   0.9880   0.0036   -0.100
   8   0.9843   0.0047   -0.081
   9   0.9801   0.0059   -0.092
  10   0.9755   0.0074   -0.101
  11   0.9704   0.0089   -0.099
  12   0.9649   0.0106   -0.080
  13   0.9589   0.0125   -0.077
  14   0.9524   0.0145   -0.062
  15   0.9455   0.0167   -0.046
  16   0.9382   0.0190   -0.029
  17   0.9304   0.0214    0.005
  18   0.9222   0.0240    0.019
  19   0.9135   0.0267    0.065
  20   0.9045   0.0296    0.081
  21   0.8951   0.0325    0.121
  22   0.8853   0.0355    0.167
  23   0.8751   0.0387    0.206
  24   0.8645   0.0419    0.243
  25   0.8536   0.0451    0.283
  26   0.8423   0.0484    0.337
  27   0.8307   0.0517    0.383
  28   0.8187   0.0550    0.424
  29   0.8065   0.0584    0.473
  30   0.7939   0.0616    0.527
  31   0.7810   0.0649    0.560
  32   0.7679   0.0681    0.614
  33   0.7545   0.0711    0.660
  34   0.7409   0.0741    0.691
  35   0.7270   0.0770    0.738
  36   0.7129   0.0797    0.772
  37   0.6986   0.0822    0.805
  38   0.6841   0.0846    0.836
  39   0.6694   0.0868    0.854
  40   0.6545   0.0888    0.884
  41   0.6395   0.0905    0.891
  42   0.6243   0.0921    0.909
  43   0.6091   0.0934    0.908
  44   0.5937   0.0945    0.913
  45   0.5782   0.0953    0.905
  46   0.5627   0.0959    0.896
  47   0.5471   0.0963    0.882
  48   0.5314   0.0964    0.863
  49   0.5157   0.0963    0.835
  50   0.5000   0.0959    0.806
  51   0.4843   0.0953    0.778
  52   0.4686   0.0946    0.739
  53   0.4529   0.0936    0.701
  54   0.4373   0.0924    0.662
  55   0.4218   0.0911    0.619
  56   0.4063   0.0895    0.572
  57   0.3909   0.0879    0.528
  58   0.3757   0.0861    0.486
  59   0.3605   0.0842    0.441
  60   0.3455   0.0822    0.394
  61   0.3306   0.0801    0.354
  62   0.3159   0.0779    0.315
  63   0.3014   0.0757    0.277
  64   0.2871   0.0735    0.243
  65   0.2730   0.0712    0.201
  66   0.2591   0.0689    0.185
  67   0.2455   0.0666    0.156
  68   0.2321   0.0643    0.132
  69   0.2190   0.0620    0.127
  70   0.2061   0.0597    0.107
  71   0.1935   0.0575    0.104
  72   0.1813   0.0553    0.109
  73   0.1693   0.0531    0.116
  74   0.1577   0.0510    0.130
  75   0.1464   0.0489    0.146
  76   0.1355   0.0468    0.177
  77   0.1249   0.0448    0.213
  78   0.1147   0.0428    0.255
  79   0.1049   0.0408    0.312
  80   0.0955   0.0389    0.365
  81   0.0865   0.0370    0.450
  82   0.0778   0.0350    0.526
  83   0.0696   0.0332    0.621
  84   0.0618   0.0313    0.746
  85   0.0545   0.0294    0.872
  86   0.0476   0.0275    1.043
  87   0.0411   0.0256    1.205
  88   0.0351   0.0237    1.449
  89   0.0296   0.0218    1.707
  90   0.0245   0.0199    2.032
  91   0.0199   0.0180    2.472
  92   0.0157   0.0160    2.994
  93   0.0120   0.0141    3.665
  94   0.0089   0.0121    4.570
  95   0.0062   0.0101    5.771
  96   0.0039   0.0081    7.274
  97   0.0022   0.0061    9.211
  98   0.0010   0.0041   11.311
  99   0.0002   0.0020   13.118
 100   0.0000   0.0000    8.821
 101   0.0002  -0.0075    3.767
 102   0.0010  -0.0150    3.777
 103   0.0022  -0.0224    3.806
 104   0.0039  -0.0297    3.827
 105   0.0062  -0.0370    3.862
 106   0.0089  -0.0440    3.906
 107   0.0120  -0.0509    3.933
 108   0.0157  -0.0576    3.985
 109   0.0199  -0.0640    4.011
 110   0.0245  -0.0702    4.031
 111   0.0296  -0.0761    4.058
 112   0.0351  -0.0817    4.047
 113   0.0411  -0.0869    4.035
 114   0.0476  -0.0918    4.008
 115   0.0545  -0.0963    3.940
 116   0.0618  -0.1004    3.863
 117   0.0696  -0.1041    3.766
 118   0.0778  -0.1073    3.646
 119   0.0865  -0.1101    3.509
 120   0.0955  -0.1124    3.346
 121   0.1049  -0.1142    3.190
 122   0.1147  -0.1156    3.013
 123   0.1249  -0.1164    2.825
 124   0.1355  -0.1168    2.648
 125   0.1464  -0.1167    2.450
 126   0.1577  -0.1160    2.273
 127   0.1693  -0.1149    2.085
 128   0.1813  -0.1134    1.906
 129   0.1935  -0.1113    1.731
 130   0.2061  -0.1089    1.558
 131   0.2190  -0.1060    1.398
 132   0.2321  -0.1027    1.233
 133   0.2455  -0.0990    1.088
 134   0.2591  -0.0950    0.930
 135   0.2730  -0.0907    0.798
 136   0.2871  -0.0861    0.651
 137   0.3014  -0.0812    0.527
 138   0.3159  -0.0761    0.394
 139   0.3306  -0.0708    0.269
 140   0.3455  -0.0654    0.159
 141   0.3605  -0.0599    0.030
 142   0.3757  -0.0544   -0.069
 143   0.3909  -0.0488   -0.186
 144   0.4063  -0.0432   -0.284
 145   0.4218  -0.0377   -0.384
 146   0.4373  -0.0323   -0.482
 147   0.4529  -0.0270   -0.568
 148   0.4686  -0.0218   -0.659
 149   0.4843  -0.0169   -0.739
 150   0.5000  -0.0121   -0.813
 151   0.5157  -0.0077   -0.880
 152   0.5314  -0.0034   -0.944
 153   0.5471   0.0005   -0.999
 154   0.5627   0.0042   -1.043
 155   0.5782   0.0075   -1.086
 156   0.5937   0.0105   -1.109
 157   0.6091   0.0132   -1.136
 158   0.6243   0.0156   -1.145
 159   0.6395   0.0176   -1.148
 160   0.6545   0.0193   -1.144
 161   0.6694   0.0207   -1.124
 162   0.6841   0.0218   -1.100
 163   0.6986   0.0226   -1.072
 164   0.7129   0.0231   -1.025
 165   0.7270   0.0233   -0.986
 166   0.7409   0.0233   -0.923
 167   0.7545   0.0231   -0.876
 168   0.7679   0.0227   -0.807
 169   0.7810   0.0221   -0.745
 170   0.7939   0.0214   -0.671
 171   0.8065   0.0205   -0.605
 172   0.8187   0.0195   -0.535
 173   0.8307   0.0184   -0.461
 174   0.8423   0.0173   -0.398
 175   0.8536   0.0161   -0.319
 176   0.8645   0.0149   -0.255
 177   0.8751   0.0137   -0.187
 178   0.8853   0.0125   -0.138
 179   0.8951   0.0113   -0.067
 180   0.9045   0.0102   -0.022
 181   0.9135   0.0091    0.033
 182   0.9222   0.0080    0.070
 183   0.9304   0.0070    0.115
 184   0.9382   0.0061    0.145
 185   0.9455   0.0052    0.181
 186   0.9524   0.0045    0.188
 187   0.9589   0.0038    0.212
 188   0.9649   0.0031    0.230
 189   0.9704   0.0026    0.222
 190   0.9755   0.0021    0.236
 191   0.9801   0.0016    0.215
 192   0.9843   0.0013    0.202
 193   0.9880   0.0009    0.208
 194   0.9911   0.0007    0.166
 195   0.9938   0.0005    0.160
 196   0.9961   0.0003    0.114
 197   0.9978   0.0002    0.101
 198   0.9990   0.0001    0.081
 199   0.9998   0.0000   -0.071

 Maximum panel corner angle = 13.118   at  i,x,y  =  99   0.0002   0.0020

 Enter corner angle criterion for refinement (deg):   6.559
 Enter type of spline parameter (1=uniform, 2=arclength):   1
 Enter refinement x limits:  -0.10000   1.10000
 Number of points added:           10
 Max thickness =     0.168871  at x =   0.194
 Max camber    =     0.053978  at x =   0.640

 Maximum panel corner angle = 11.761   at  i,x,y  = 107   0.0001   0.0017

.GDES   c>  
 Buffer airfoil is not identical to current airfoil

 XFOIL   c>  
 Blunt trailing edge.  Gap =  0.00026

 Paneling parameters used...
   Number of panel nodes       160
   Panel bunching parameter    1.000
   TE/LE panel density ratio   0.150
   Refined-area/LE panel density ratio    0.200
   Top    side refined area x/c limits  1.000 1.000
   Bottom side refined area x/c limits  1.000 1.000

 XFOIL   c>  
Enter output filename   s>  
 XFOIL   c>  
.OPERi   c>   Current iteration limit:          20

Enter new iteration limit   i>  
Enter new iteration limit   i>  
Enter new iteration limit   i>  
.OPERi   c>  
 M  =    0.0000
 Re =  0.3000E+06

.OPERv   c>  
 Sonic Cp =   -420.65      Sonic Q/Qinf =    22.825


.OPERv   c>  
 Polar  1 newly created for accumulation
 Airfoil archived with polar: 000046                                          

Enter  polar save filename  OR  <return> for no file   s>  
 New polar save file available

Enter  polar dump filename  OR  <return> for no file   s>  
 Polar dump file will NOT be written

 Polar accumulation enabled

.OPERva   c>   Calculating unit vorticity distributions ...
 Calculating wake trajectory ...
 Calculating source influence matrix ...

 Solving BL system ...

 Initializing BL ...
    side            1  ...
 MRCHUE: Inverse mode at  20     Hk =   4.236
 MRCHUE: Inverse mode at  21     Hk =   4.871
 MRCHUE: Inverse mode at  22     Hk =   5.471
 MRCHUE: Inverse mode at  23     Hk =   6.051
 MRCHUE: Inverse mode at  24     Hk =   6.621
 MRCHUE: Inverse mode at  25     Hk =   7.189
 MRCHUE: Inverse mode at  26     Hk =   7.759
 MRCHUE: Inverse mode at  27     Hk =   8.336
 MRCHUE: Inverse mode at  28     Hk =   8.925
 MRCHUE: Inverse mode at  29     Hk =   9.530
 MRCHUE: Inverse mode at  30     Hk =  10.155
 MRCHUE: Inverse mode at  31     Hk =   6.996
 MRCHUE: Inverse mode at  32     Hk =   5.279
 MRCHUE: Inverse mode at  33     Hk =   4.031
 MRCHUE: Inverse mode at  34     Hk =   3.025
 MRCHUE: Inverse mode at  79     Hk =   2.500
 MRCHUE: Inverse mode at  80     Hk =   2.500
 MRCHUE: Inverse mode at  81     Hk =   2.500
 MRCHUE: Inverse mode at  82     Hk =   2.500
 MRCHUE: Inverse mode at  83     Hk =   2.500
 MRCHUE: Inverse mode at  84     Hk =   2.500
 MRCHUE: Convergence failed at  85  side 1    Res =  0.1353E+03
    side            2  ...
 MRCHUE: Inverse mode at  32     Hk =   4.218
 MRCHUE: Inverse mode at  33     Hk =   5.113
 MRCHUE: Inverse mode at  34     Hk =   6.003
 MRCHUE: Inverse mode at  35     Hk =   6.900
 MRCHUE: Inverse mode at  36     Hk =   7.810
 MRCHUE: Inverse mode at  37     Hk =   8.739
 MRCHUE: Inverse mode at  38     Hk =   9.691
 MRCHUE: Inverse mode at  39     Hk =   5.475
 MRCHUE: Inverse mode at  40     Hk =   3.119
 MRCHUE: Inverse mode at  41     Hk =   2.500
 MRCHUE: Inverse mode at  46     Hk =   2.500
 MRCHUE: Inverse mode at  47     Hk =   2.500
 MRCHUE: Inverse mode at  48     Hk =   2.500
 MRCHUE: Inverse mode at  49     Hk =   2.500
 MRCHUE: Inverse mode at  50     Hk =   2.500
 MRCHUE: Inverse mode at  51     Hk =   2.500
 MRCHUE: Inverse mode at  52     Hk =   2.500
 MRCHUE: Inverse mode at  53     Hk =   2.500
 MRCHUE: Inverse mode at  54     Hk =   2.500
 MRCHUE: Inverse mode at  55     Hk =   2.500
 MRCHUE: Inverse mode at  56     Hk =   2.500
 MRCHUE: Inverse mode at  57     Hk =   2.500
 MRCHUE: Inverse mode at  58     Hk =   2.500
 MRCHUE: Inverse mode at  59     Hk =   2.500
 MRCHUE: Inverse mode at  60     Hk =   2.500
 MRCHUE: Inverse mode at  61     Hk =   2.500
 MRCHUE: Inverse mode at  62     Hk =   2.500
 MRCHUE: Inverse mode at  63     Hk =   2.500
 MRCHUE: Convergence failed at  77  side 2    Res =  0.1487E+01

 MRCHDU: Convergence failed at  85  side 1    Res =  0.1724E+03
 Side 1  free  transition at x/c =  0.0495   31
 Side 2  free  transition at x/c =  0.2733   39

   1   rms: 0.7728E+00   max: -.3963E+01   T at   31  1   RLX: 0.126
       a =  2.000      CL =  0.7272
      Cm = -0.2205     CD =  0.00725   =>   CDf =  0.00869    CDp = -0.00145

 Side 1  free  transition at x/c =  0.0520   31
 Side 2  free  transition at x/c =  0.2726   39

   2   rms: 0.6104E+00   max: -.4834E+01   T at   31  1   RLX: 0.103
       a =  2.000      CL =  0.6886
      Cm = -0.2128     CD =  0.00857   =>   CDf =  0.00885    CDp = -0.00028

 Side 1  free  transition at x/c =  0.0571   32
 Side 2  free  transition at x/c =  0.2714   39

   3   rms: 0.4254E+00   max: -.2638E+01   T at   32  1   RLX: 0.190
       a =  2.000      CL =  0.6499
      Cm = -0.2048     CD =  0.00973   =>   CDf =  0.00887    CDp =  0.00086

 Side 1  free  transition at x/c =  0.0628   33
 Side 2  free  transition at x/c =  0.2685   38

   4   rms: 0.3030E+00   max: -.1687E+01   T at   33  1   RLX: 0.296
       a =  2.000      CL =  0.6138
      Cm = -0.1945     CD =  0.01224   =>   CDf =  0.00891    CDp =  0.00333

 Side 1  free  transition at x/c =  0.0677   33
 Side 2  free  transition at x/c =  0.2608   39

   5   rms: 0.3344E+00   max: -.2517E+01   T at   33  1   RLX: 0.199
       a =  2.000      CL =  0.6094
      Cm = -0.1933     CD =  0.01319   =>   CDf =  0.00881    CDp =  0.00438

 Side 1  free  transition at x/c =  0.0708   33
 Side 2  free  transition at x/c =  0.2593   39

   6   rms: 0.1875E+00   max: -.1257E+01   T at   33  1   RLX: 0.398
       a =  2.000      CL =  0.5903
      Cm = -0.1886     CD =  0.01540   =>   CDf =  0.00874    CDp =  0.00666

 Side 1  free  transition at x/c =  0.0770   34
 Side 2  free  transition at x/c =  0.2570   39

   7   rms: 0.1172E+00   max: -.7980E+00   T at   34  1   RLX: 0.627
       a =  2.000      CL =  0.5715
      Cm = -0.1831     CD =  0.01769   =>   CDf =  0.00877    CDp =  0.00893

 Side 1  free  transition at x/c =  0.0834   35
 Side 2  free  transition at x/c =  0.2547   38

   8   rms: 0.9500E-01   max: -.7603E+00   T at   35  1   RLX: 0.658
       a =  2.000      CL =  0.5618
      Cm = -0.1804     CD =  0.01923   =>   CDf =  0.00878    CDp =  0.01045

 Side 1  free  transition at x/c =  0.0917   36
 Side 2  free  transition at x/c =  0.2527   38

   9   rms: 0.5843E-01   max: -.4806E+00   C at   36  1
       a =  2.000      CL =  0.5486
      Cm = -0.1770     CD =  0.02006   =>   CDf =  0.00860    CDp =  0.01145

 Side 1  free  transition at x/c =  0.1095   37
 Side 2  free  transition at x/c =  0.2509   38

  10   rms: 0.7782E-02   max: 0.6593E-01   D at   37  1
       a =  2.000      CL =  0.5415
      Cm = -0.1760     CD =  0.02047   =>   CDf =  0.00836    CDp =  0.01211

 Side 1  free  transition at x/c =  0.1106   37
 Side 2  free  transition at x/c =  0.2506   38

  11   rms: 0.2478E-03   max: -.1997E-02   C at   37  1
       a =  2.000      CL =  0.5415
      Cm = -0.1760     CD =  0.02048   =>   CDf =  0.00835    CDp =  0.01213

 Side 1  free  transition at x/c =  0.1108   37
 Side 2  free  transition at x/c =  0.2506   38

  12   rms: 0.9293E-05   max: -.4297E-04   D at   52  2
       a =  2.000      CL =  0.5415
      Cm = -0.1760     CD =  0.02048   =>   CDf =  0.00835    CDp =  0.01213

 Point added to stored polar  1
 Point written to save file  000046M0.04.log                                 
 Dump file unspecified or not available
 Calculating wake trajectory ...
 Calculating source influence matrix ...

 Solving BL system ...

 Side 1  free  transition at x/c =  0.1108   37
 Side 2  free  transition at x/c =  0.2506   38

   1   rms: 0.3164E+00   max: 0.5234E+01   C at   37  1   RLX: 0.287
       a =  3.000      CL =  0.5609
      Cm = -0.1738     CD =  0.02103   =>   CDf =  0.00835    CDp =  0.01268

 Side 1  free  transition at x/c =  0.0817   34
 Side 2  free  transition at x/c =  0.2532   38

   2   rms: 0.2061E+00   max: -.2111E+01   C at   34  1   RLX: 0.237
       a =  3.000      CL =  0.5825
      Cm = -0.1748     CD =  0.02107   =>   CDf =  0.00865    CDp =  0.01242

 Side 1  free  transition at x/c =  0.0714   33
 Side 2  free  transition at x/c =  0.2549   39

   3   rms: 0.1501E+00   max: 0.1005E+01   T at   33  1   RLX: 0.531
       a =  3.000      CL =  0.6155
      Cm = -0.1757     CD =  0.02050   =>   CDf =  0.00867    CDp =  0.01183

 Side 1  free  transition at x/c =  0.0619   33
 Side 2  free  transition at x/c =  0.2607   38

   4   rms: 0.6633E-01   max: -.8335E+00   D at   36  1   RLX: 0.600
       a =  3.000      CL =  0.6177
      Cm = -0.1730     CD =  0.02198   =>   CDf =  0.00864    CDp =  0.01334

 Side 1  free  transition at x/c =  0.0598   32
 Side 2  free  transition at x/c =  0.2599   38

   5   rms: 0.3260E-01   max: -.4568E+00   D at   36  1
       a =  3.000      CL =  0.6168
      Cm = -0.1697     CD =  0.02242   =>   CDf =  0.00867    CDp =  0.01375

 Side 1  free  transition at x/c =  0.0569   32
 Side 2  free  transition at x/c =  0.2592   38

   6   rms: 0.6305E-02   max: -.8726E-01   D at   36  1
       a =  3.000      CL =  0.6150
      Cm = -0.1695     CD =  0.02255   =>   CDf =  0.00871    CDp =  0.01384

 Side 1  free  transition at x/c =  0.0572   32
 Side 2  free  transition at x/c =  0.2592   38

   7   rms: 0.1524E-03   max: -.2162E-02   D at   36  1
       a =  3.000      CL =  0.6151
      Cm = -0.1695     CD =  0.02255   =>   CDf =  0.00871    CDp =  0.01384

 Side 1  free  transition at x/c =  0.0572   32
 Side 2  free  transition at x/c =  0.2592   38

   8   rms: 0.5824E-05   max: 0.2934E-04   D at   54  2
       a =  3.000      CL =  0.6151
      Cm = -0.1695     CD =  0.02255   =>   CDf =  0.00871    CDp =  0.01384

 Point added to stored polar  1
 Point written to save file  000046M0.04.log                                 
 Dump file unspecified or not available
 Calculating wake trajectory ...
 Calculating source influence matrix ...

 Solving BL system ...

 Side 1  free  transition at x/c =  0.0572   32
 Side 2  free  transition at x/c =  0.2592   38

   1   rms: 0.1724E+00   max: 0.1639E+01   T at   32  1   RLX: 0.735
       a =  4.000      CL =  0.6702
      Cm = -0.1641     CD =  0.02444   =>   CDf =  0.00850    CDp =  0.01594

 MRCHDU: Convergence failed at  33  side 1    Res =  0.8129E+01
 MRCHDU: Convergence failed at  34  side 1    Res =  0.1540E+02
 MRCHDU: Convergence failed at  35  side 1    Res =  0.8328E+01
 MRCHDU: Convergence failed at  36  side 1    Res =  0.2919E+02
 MRCHDU: Convergence failed at  37  side 1    Res =  0.2255E+02
 MRCHDU: Convergence failed at  38  side 1    Res =  0.3173E+02
 MRCHDU: Convergence failed at  39  side 1    Res =  0.1741E+03
 MRCHDU: Convergence failed at  40  side 1    Res =  0.1703E+02
 MRCHDU: Convergence failed at  41  side 1    Res =  0.1101E+02
 MRCHDU: Convergence failed at  42  side 1    Res =  0.8284E+01
 MRCHDU: Convergence failed at  43  side 1    Res =  0.7081E+01
 MRCHDU: Convergence failed at  44  side 1    Res =  0.6132E+01
 MRCHDU: Convergence failed at  45  side 1    Res =  0.5750E+01
 MRCHDU: Convergence failed at  46  side 1    Res =  0.5598E+01
 MRCHDU: Convergence failed at  47  side 1    Res =  0.5671E+01
 MRCHDU: Convergence failed at  48  side 1    Res =  0.5995E+01
 MRCHDU: Convergence failed at  49  side 1    Res =  0.6672E+01
 MRCHDU: Convergence failed at  50  side 1    Res =  0.8431E+01
 MRCHDU: Convergence failed at  51  side 1    Res =  0.1161E+02
 MRCHDU: Convergence failed at  52  side 1    Res =  0.3323E+03
 MRCHDU: Convergence failed at  53  side 1    Res =  0.2147E+02
 MRCHDU: Convergence failed at  54  side 1    Res =  0.8858E+01
 MRCHDU: Convergence failed at  55  side 1    Res =  0.5763E+01
 MRCHDU: Convergence failed at  56  side 1    Res =  0.4082E+01
 MRCHDU: Convergence failed at  57  side 1    Res =  0.3010E+01
 MRCHDU: Convergence failed at  58  side 1    Res =  0.2590E+01
 MRCHDU: Convergence failed at  59  side 1    Res =  0.2275E+01
 MRCHDU: Convergence failed at  60  side 1    Res =  0.4592E+01
 MRCHDU: Convergence failed at  61  side 1    Res =  0.4646E+01
 MRCHDU: Convergence failed at  62  side 1    Res =  0.4751E+01
 MRCHDU: Convergence failed at  63  side 1    Res =  0.4921E+01
 MRCHDU: Convergence failed at  64  side 1    Res =  0.5172E+01
 MRCHDU: Convergence failed at  65  side 1    Res =  0.5550E+01
 MRCHDU: Convergence failed at  66  side 1    Res =  0.6080E+01
 MRCHDU: Convergence failed at  67  side 1    Res =  0.7105E+01
 MRCHDU: Convergence failed at  68  side 1    Res =  0.8385E+01
 MRCHDU: Convergence failed at  69  side 1    Res =  0.1098E+02
 MRCHDU: Convergence failed at  70  side 1    Res =  0.1577E+02
 MRCHDU: Convergence failed at  71  side 1    Res =  0.2670E+02
 MRCHDU: Convergence failed at  72  side 1    Res =  0.1650E+03
 MRCHDU: Convergence failed at  73  side 1    Res =  0.1569E+02
 MRCHDU: Convergence failed at  74  side 1    Res =  0.2358E+02
 MRCHDU: Convergence failed at  75  side 1    Res =  0.5185E+02
 MRCHDU: Convergence failed at  76  side 1    Res =  0.6664E+02
 MRCHDU: Convergence failed at  77  side 1    Res =  0.2399E+02
 MRCHDU: Convergence failed at  78  side 1    Res =  0.1879E+02
 MRCHDU: Convergence failed at  79  side 1    Res =  0.2428E+02
 MRCHDU: Convergence failed at  80  side 1    Res =  0.3337E+02
 MRCHDU: Convergence failed at  81  side 1    Res =  0.1725E+02
 MRCHDU: Convergence failed at  82  side 1    Res =  0.2295E+02
 MRCHDU: Convergence failed at  83  side 1    Res =  0.2408E+02
 MRCHDU: Convergence failed at  84  side 1    Res =  0.2678E+02
 MRCHDU: Convergence failed at  85  side 1    Res =  0.3501E+02
 MRCHDU: Convergence failed at  86  side 1    Res =  0.4738E+02
 Side 1  free  transition at x/c =  0.0473   31
 Side 2  free  transition at x/c =  0.2648   37

   2   rms: 0.4746E+00   max: 0.2414E+01   D at   86  1   RLX: 0.432
       a =  4.000      CL =  0.9501
      Cm = -0.2760     CD =  0.01694   =>   CDf =  0.00283    CDp =  0.01411

 Side 1  free  transition at x/c =  0.0465   31
 Side 2  free  transition at x/c =  0.2645   37

   3   rms: 0.1745E+00   max: -.8637E+00   D at   35  1   RLX: 0.579
       a =  4.000      CL =  0.7384
      Cm = -0.1936     CD =  0.02942   =>   CDf =  0.00918    CDp =  0.02024

 Side 1  free  transition at x/c =  0.0471   31
 Side 2  free  transition at x/c =  0.2666   37

   4   rms: 0.1775E+00   max: -.1018E+01   D at   72  1   RLX: 0.491
       a =  4.000      CL =  0.7233
      Cm = -0.1762     CD =  0.02626   =>   CDf =  0.00861    CDp =  0.01766

 Side 1  free  transition at x/c =  0.0447   31
 Side 2  free  transition at x/c =  0.2688   37

   5   rms: 0.1696E+00   max: -.9044E+00   D at   73  1   RLX: 0.553
       a =  4.000      CL =  0.7408
      Cm = -0.1708     CD =  0.02345   =>   CDf =  0.00878    CDp =  0.01466

 Side 1  free  transition at x/c =  0.0431   30
 Side 2  free  transition at x/c =  0.2706   37

   6   rms: 0.5440E-01   max: -.3677E+00   D at   71  1
       a =  4.000      CL =  0.7118
      Cm = -0.1650     CD =  0.02412   =>   CDf =  0.00894    CDp =  0.01517

 Side 1  free  transition at x/c =  0.0421   30
 Side 2  free  transition at x/c =  0.2699   37

   7   rms: 0.2714E-01   max: 0.1754E+00   D at   81  1
       a =  4.000      CL =  0.6917
      Cm = -0.1630     CD =  0.02509   =>   CDf =  0.00889    CDp =  0.01620

 Side 1  free  transition at x/c =  0.0431   30
 Side 2  free  transition at x/c =  0.2690   37

   8   rms: 0.2464E-02   max: 0.2994E-01   D at   80  1
       a =  4.000      CL =  0.6908
      Cm = -0.1629     CD =  0.02513   =>   CDf =  0.00884    CDp =  0.01629

 Side 1  free  transition at x/c =  0.0431   30
 Side 2  free  transition at x/c =  0.2690   37

   9   rms: 0.6630E-04   max: -.3244E-03   D at   81  1
       a =  4.000      CL =  0.6909
      Cm = -0.1629     CD =  0.02512   =>   CDf =  0.00884    CDp =  0.01629

 Point added to stored polar  1
 Point written to save file  000046M0.04.log                                 
 Dump file unspecified or not available
 Calculating wake trajectory ...
 Calculating source influence matrix ...

 Solving BL system ...

 Side 1  free  transition at x/c =  0.0431   30
 Side 2  free  transition at x/c =  0.2690   37

   1   rms: 0.1644E+00   max: 0.1381E+01   T at   30  1   RLX: 0.869
       a =  5.000      CL =  0.7701
      Cm = -0.1589     CD =  0.02672   =>   CDf =  0.00860    CDp =  0.01812

 MRCHDU: Convergence failed at  31  side 1    Res =  0.3800E+01
 MRCHDU: Convergence failed at  32  side 1    Res =  0.1154E+02
 MRCHDU: Convergence failed at  33  side 1    Res =  0.7335E+02
 MRCHDU: Convergence failed at  34  side 1    Res =  0.1198E+03
 MRCHDU: Convergence failed at  35  side 1    Res =  0.2384E+02
 MRCHDU: Convergence failed at  36  side 1    Res =  0.1716E+02
 MRCHDU: Convergence failed at  37  side 1    Res =  0.1541E+02
 MRCHDU: Convergence failed at  38  side 1    Res =  0.2797E+02
 MRCHDU: Convergence failed at  39  side 1    Res =  0.2670E+02
 MRCHDU: Convergence failed at  40  side 1    Res =  0.2869E+02
 MRCHDU: Convergence failed at  41  side 1    Res =  0.3089E+02
 MRCHDU: Convergence failed at  42  side 1    Res =  0.3337E+02
 MRCHDU: Convergence failed at  43  side 1    Res =  0.3572E+02
 MRCHDU: Convergence failed at  44  side 1    Res =  0.3717E+02
 MRCHDU: Convergence failed at  45  side 1    Res =  0.3917E+02
 MRCHDU: Convergence failed at  46  side 1    Res =  0.4116E+02
 MRCHDU: Convergence failed at  47  side 1    Res =  0.4354E+02
 MRCHDU: Convergence failed at  48  side 1    Res =  0.4359E+02
 MRCHDU: Convergence failed at  49  side 1    Res =  0.4652E+02
 MRCHDU: Convergence failed at  50  side 1    Res =  0.5000E+02
 MRCHDU: Convergence failed at  51  side 1    Res =  0.5389E+02
 MRCHDU: Convergence failed at  52  side 1    Res =  0.5808E+02
 MRCHDU: Convergence failed at  53  side 1    Res =  0.6235E+02
 MRCHDU: Convergence failed at  54  side 1    Res =  0.6021E+02
 MRCHDU: Convergence failed at  55  side 1    Res =  0.6275E+02
 MRCHDU: Convergence failed at  56  side 1    Res =  0.6391E+02
 MRCHDU: Convergence failed at  57  side 1    Res =  0.6361E+02
 MRCHDU: Convergence failed at  58  side 1    Res =  0.6155E+02
 MRCHDU: Convergence failed at  59  side 1    Res =  0.5800E+02
 MRCHDU: Convergence failed at  60  side 1    Res =  0.5339E+02
 MRCHDU: Convergence failed at  61  side 1    Res =  0.5253E+02
 MRCHDU: Convergence failed at  62  side 1    Res =  0.4672E+02
 MRCHDU: Convergence failed at  63  side 1    Res =  0.4400E+02
 MRCHDU: Convergence failed at  64  side 1    Res =  0.3840E+02
 MRCHDU: Convergence failed at  65  side 1    Res =  0.3335E+02
 MRCHDU: Convergence failed at  66  side 1    Res =  0.2949E+02
 MRCHDU: Convergence failed at  67  side 1    Res =  0.2633E+02
 MRCHDU: Convergence failed at  68  side 1    Res =  0.2343E+02
 MRCHDU: Convergence failed at  69  side 1    Res =  0.2058E+02
 MRCHDU: Convergence failed at  70  side 1    Res =  0.2525E+02
 MRCHDU: Convergence failed at  71  side 1    Res =  0.3342E+02
 MRCHDU: Convergence failed at  72  side 1    Res =  0.7370E+02
 MRCHDU: Convergence failed at  73  side 1    Res =  0.4981E+02
 MRCHDU: Convergence failed at  74  side 1    Res =  0.3885E+02
 MRCHDU: Convergence failed at  75  side 1    Res =  0.1069E+03
 MRCHDU: Convergence failed at  76  side 1    Res =  0.1032E+03
 MRCHDU: Convergence failed at  77  side 1    Res =  0.7152E+03
 MRCHDU: Convergence failed at  78  side 1    Res =  0.1597E+03
 MRCHDU: Convergence failed at  79  side 1    Res =  0.1378E+04
 MRCHDU: Convergence failed at  80  side 1    Res =  0.3694E+02
 MRCHDU: Convergence failed at  81  side 1    Res =  0.3814E+02
 MRCHDU: Convergence failed at  82  side 1    Res =  0.2052E+04
 MRCHDU: Convergence failed at  83  side 1    Res =  0.9017E+02
 MRCHDU: Convergence failed at  84  side 1    Res =  0.4105E+02
 MRCHDU: Convergence failed at  85  side 1    Res =  0.3252E+02
 MRCHDU: Convergence failed at  86  side 1    Res =  0.3402E+02
 MRCHDU: Convergence failed at  87  side 1    Res =  0.3571E+02
 Side 1  free  transition at x/c =  0.0367   30
 Side 2  free  transition at x/c =  0.2828   37

   2   rms: 0.9577E+00   max: 0.4216E+01   D at   80  2   RLX: 0.356
       a =  5.000      CL =  1.4735
      Cm = -0.4127     CD =  0.01523   =>   CDf =  0.00288    CDp =  0.01235

 MRCHDU: Convergence failed at  57  side 1    Res =  0.1540E+00
 MRCHDU: Convergence failed at  58  side 1    Res =  0.1518E+00
 MRCHDU: Convergence failed at  59  side 1    Res =  0.1485E+00
 MRCHDU: Convergence failed at  60  side 1    Res =  0.1439E+00
 MRCHDU: Convergence failed at  61  side 1    Res =  0.1378E+00
 MRCHDU: Convergence failed at  62  side 1    Res =  0.1300E+00
 MRCHDU: Convergence failed at  63  side 1    Res =  0.1201E+00
 MRCHDU: Convergence failed at  64  side 1    Res =  0.1072E+00
 MRCHDU: Convergence failed at  65  side 1    Res =  0.8801E-01
 MRCHDU: Convergence failed at  80  side 2    Res =  0.6041E+01
 MRCHDU: Convergence failed at  81  side 2    Res =  0.1418E+03
 MRCHDU: Convergence failed at  82  side 2    Res =  0.5047E+01
 MRCHDU: Convergence failed at  83  side 2    Res =  0.3188E+01
 MRCHDU: Convergence failed at  84  side 2    Res =  0.7157E+01
 MRCHDU: Convergence failed at  85  side 2    Res =  0.1042E+02
 MRCHDU: Convergence failed at  86  side 2    Res =  0.5899E+01
 MRCHDU: Convergence failed at  87  side 2    Res =  0.3088E+01
 MRCHDU: Convergence failed at  88  side 2    Res =  0.2526E+01
 MRCHDU: Convergence failed at  89  side 2    Res =  0.2080E+01
 Side 1  free  transition at x/c =  0.0368   30
 Side 2  free  transition at x/c =  0.2778   37

   3   rms: 0.4754E+00   max: -.2294E+01   T at   30  1   RLX: 0.218
       a =  5.000      CL =  0.7927
      Cm = -0.2528     CD =  0.07228   =>   CDf =  0.00371    CDp =  0.06857

 Side 1  free  transition at x/c =  0.0398   30
 Side 2  free  transition at x/c =  0.2756   38

   4   rms: 0.4205E+00   max: -.2189E+01   T at   30  1   RLX: 0.228
       a =  5.000      CL =  0.6627
      Cm = -0.2269     CD =  0.08494   =>   CDf =  0.00368    CDp =  0.08126

 Side 1  free  transition at x/c =  0.0422   30
 Side 2  free  transition at x/c =  0.2732   38

   5   rms: 0.9506E+00   max: -.1110E+02   T at   30  1   RLX: 0.045
       a =  5.000      CL =  0.6209
      Cm = -0.2201     CD =  0.09379   =>   CDf =  0.00389    CDp =  0.08990

 Side 1  free  transition at x/c =  0.0450   30
 Side 2  free  transition at x/c =  0.2720   39

   6   rms: 0.4507E+00   max: -.2791E+01   T at   30  1   RLX: 0.179
       a =  5.000      CL =  0.5220
      Cm = -0.1977     CD =  0.08464   =>   CDf =  0.00407    CDp =  0.08057

 Side 1  free  transition at x/c =  0.0483   30
 Side 2  free  transition at x/c =  0.2699   38

   7   rms: 0.5644E+00   max: 0.5915E+01   T at   30  1   RLX: 0.135
       a =  5.000      CL =  0.5170
      Cm = -0.1879     CD =  0.08586   =>   CDf =  0.00417    CDp =  0.08168

 Side 1  free  transition at x/c =  0.0451   30
 Side 2  free  transition at x/c =  0.2700   38

   8   rms: 0.4164E+00   max: -.2199E+01   D at   54  1   RLX: 0.227
       a =  5.000      CL =  0.4761
      Cm = -0.1746     CD =  0.08427   =>   CDf =  0.00403    CDp =  0.08024

 Side 1  free  transition at x/c =  0.0477   30
 Side 2  free  transition at x/c =  0.2690   38

   9   rms: 0.1358E+01   max: -.1292E+02   T at   30  1   RLX: 0.039
       a =  5.000      CL =  0.4490
      Cm = -0.1717     CD =  0.08987   =>   CDf =  0.00423    CDp =  0.08564

 Side 1  free  transition at x/c =  0.0510   31
 Side 2  free  transition at x/c =  0.2687   38

  10   rms: 0.2352E+01   max: -.1734E+02   T at   31  1   RLX: 0.029
       a =  5.000      CL =  0.4030
      Cm = -0.1661     CD =  0.08826   =>   CDf =  0.00461    CDp =  0.08366

 Side 1  free  transition at x/c =  0.0576   32
 Side 2  free  transition at x/c =  0.2685   38

  11   rms: 0.7666E+00   max: 0.8892E+01   T at   32  1   RLX: 0.079
       a =  5.000      CL =  0.4065
      Cm = -0.1643     CD =  0.08099   =>   CDf =  0.00506    CDp =  0.07592

 Side 1  free  transition at x/c =  0.0518   31
 Side 2  free  transition at x/c =  0.2689   38

  12   rms: 0.6799E+00   max: -.3276E+01   D at   47  1   RLX: 0.153
       a =  5.000      CL =  0.4136
      Cm = -0.1631     CD =  0.07744   =>   CDf =  0.00489    CDp =  0.07256

 Side 1  free  transition at x/c =  0.0557   32
 Side 2  free  transition at x/c =  0.2695   38

  13   rms: 0.6167E+00   max: -.3005E+01   D at   44  1   RLX: 0.166
       a =  5.000      CL =  0.4299
      Cm = -0.1596     CD =  0.07344   =>   CDf =  0.00545    CDp =  0.06799

 Side 1  free  transition at x/c =  0.0573   32
 Side 2  free  transition at x/c =  0.2704   38

  14   rms: 0.6382E+00   max: -.3136E+01   D at   40  1   RLX: 0.159
       a =  5.000      CL =  0.4556
      Cm = -0.1583     CD =  0.06996   =>   CDf =  0.00578    CDp =  0.06418

 Side 1  free  transition at x/c =  0.0596   33
 Side 2  free  transition at x/c =  0.2711   37

  15   rms: 0.1149E+01   max: -.6630E+01   D at   40  1   RLX: 0.075
       a =  5.000      CL =  0.4717
      Cm = -0.1587     CD =  0.06961   =>   CDf =  0.00638    CDp =  0.06324

 MRCHDU: Convergence failed at  35  side 1    Res =  0.1542E+01
 MRCHDU: Convergence failed at  36  side 1    Res =  0.7547E+00
 MRCHDU: Convergence failed at  37  side 1    Res =  0.2617E+01
 MRCHDU: Convergence failed at  38  side 1    Res =  0.3044E+01
 MRCHDU: Convergence failed at  39  side 1    Res =  0.2820E+02
 MRCHDU: Convergence failed at  40  side 1    Res =  0.2110E+01
 MRCHDU: Convergence failed at  41  side 1    Res =  0.1344E+01
 MRCHDU: Convergence failed at  42  side 1    Res =  0.1443E+01
 MRCHDU: Convergence failed at  43  side 1    Res =  0.1736E+01
 MRCHDU: Convergence failed at  44  side 1    Res =  0.2241E+01
 MRCHDU: Convergence failed at  45  side 1    Res =  0.1468E+01
 MRCHDU: Convergence failed at  46  side 1    Res =  0.1370E+01
 MRCHDU: Convergence failed at  47  side 1    Res =  0.1501E+01
 MRCHDU: Convergence failed at  48  side 1    Res =  0.1658E+01
 MRCHDU: Convergence failed at  49  side 1    Res =  0.1834E+01
 MRCHDU: Convergence failed at  50  side 1    Res =  0.2055E+01
 MRCHDU: Convergence failed at  51  side 1    Res =  0.2337E+01
 MRCHDU: Convergence failed at  52  side 1    Res =  0.2504E+01
 MRCHDU: Convergence failed at  53  side 1    Res =  0.2739E+01
 MRCHDU: Convergence failed at  54  side 1    Res =  0.3297E+01
 Side 1  free  transition at x/c =  0.0739   35
 Side 2  free  transition at x/c =  0.2719   38

  16   rms: 0.5941E+01   max: -.9357E+02   C at   35  1   RLX: 0.005
       a =  5.000      CL =  0.8001
      Cm = -0.1527     CD =  0.07316   =>   CDf =  0.00455    CDp =  0.06862

 Side 1  free  transition at x/c =  0.0682   35
 Side 2  free  transition at x/c =  0.2719   38

  17   rms: 0.5252E+00   max: 0.2473E+01   T at   37  1   RLX: 0.244
       a =  5.000      CL =  0.7467
      Cm = -0.1595     CD =  0.06572   =>   CDf =  0.00793    CDp =  0.05779

 Side 1  free  transition at x/c =  0.0555   33
 Side 2  free  transition at x/c =  0.2716   38

  18   rms: 0.3152E+00   max: 0.2186E+01   T at   33  1   RLX: 0.503
       a =  5.000      CL =  0.6796
      Cm = -0.1517     CD =  0.05172   =>   CDf =  0.00839    CDp =  0.04333

 MRCHDU: Convergence failed at  33  side 1    Res =  0.3277E+02
 MRCHDU: Convergence failed at  35  side 1    Res =  0.4811E+02
 Side 1  free  transition at x/c =  0.0471   31
 Side 2  free  transition at x/c =  0.2738   38

  19   rms: 0.2947E+00   max: 0.1877E+01   T at   31  1   RLX: 0.403
       a =  5.000      CL =  0.7014
      Cm = -0.1467     CD =  0.04267   =>   CDf =  0.00764    CDp =  0.03503

 Side 1  free  transition at x/c =  0.0414   31
 Side 2  free  transition at x/c =  0.2762   37

  20   rms: 0.1640E+00   max: -.8142E+00   D at   72  1   RLX: 0.614
       a =  5.000      CL =  0.7003
      Cm = -0.1461     CD =  0.03433   =>   CDf =  0.00852    CDp =  0.02581

 Side 1  free  transition at x/c =  0.0393   30
 Side 2  free  transition at x/c =  0.2767   37

  21   rms: 0.1278E+00   max: -.6818E+00   D at   75  1   RLX: 0.733
       a =  5.000      CL =  0.7394
      Cm = -0.1505     CD =  0.02986   =>   CDf =  0.00860    CDp =  0.02126

 Side 1  free  transition at x/c =  0.0366   30
 Side 2  free  transition at x/c =  0.2779   37

  22   rms: 0.8263E-01   max: -.4321E+00   D at   78  1
       a =  5.000      CL =  0.7777
      Cm = -0.1578     CD =  0.02725   =>   CDf =  0.00868    CDp =  0.01858

 Side 1  free  transition at x/c =  0.0359   30
 Side 2  free  transition at x/c =  0.2789   37

  23   rms: 0.1088E-01   max: -.8204E-01   D at   75  1
       a =  5.000      CL =  0.7812
      Cm = -0.1581     CD =  0.02751   =>   CDf =  0.00883    CDp =  0.01868

 Side 1  free  transition at x/c =  0.0357   30
 Side 2  free  transition at x/c =  0.2788   37

  24   rms: 0.1317E-02   max: 0.1083E-01   D at   80  1
       a =  5.000      CL =  0.7802
      Cm = -0.1580     CD =  0.02757   =>   CDf =  0.00887    CDp =  0.01870

 Side 1  free  transition at x/c =  0.0357   30
 Side 2  free  transition at x/c =  0.2787   37

  25   rms: 0.3753E-04   max: -.1979E-03   T at   37  2
       a =  5.000      CL =  0.7802
      Cm = -0.1580     CD =  0.02756   =>   CDf =  0.00887    CDp =  0.01870

 Point added to stored polar  1
 Point written to save file  000046M0.04.log                                 
 Dump file unspecified or not available
 Calculating wake trajectory ...
 Calculating source influence matrix ...

 Solving BL system ...

 Side 1  free  transition at x/c =  0.0357   30
 Side 2  free  transition at x/c =  0.2787   37

   1   rms: 0.1739E+00   max: 0.1291E+01   T at   30  1
       a =  6.000      CL =  0.8853
      Cm = -0.1546     CD =  0.03059   =>   CDf =  0.00841    CDp =  0.02218

 MRCHDU: Convergence failed at  32  side 1    Res =  0.4570E+02
 MRCHDU: Convergence failed at  33  side 1    Res =  0.2868E+02
 MRCHDU: Convergence failed at  34  side 1    Res =  0.1157E+03
 MRCHDU: Convergence failed at  35  side 1    Res =  0.1546E+03
 MRCHDU: Convergence failed at  36  side 1    Res =  0.1663E+03
 MRCHDU: Convergence failed at  37  side 1    Res =  0.1049E+03
 MRCHDU: Convergence failed at  38  side 1    Res =  0.9252E+02
 MRCHDU: Convergence failed at  39  side 1    Res =  0.9014E+02
 MRCHDU: Convergence failed at  40  side 1    Res =  0.9359E+02
 MRCHDU: Convergence failed at  41  side 1    Res =  0.9524E+02
 MRCHDU: Convergence failed at  42  side 1    Res =  0.9622E+02
 MRCHDU: Convergence failed at  43  side 1    Res =  0.9510E+02
 MRCHDU: Convergence failed at  44  side 1    Res =  0.5013E+03
 MRCHDU: Convergence failed at  45  side 1    Res =  0.9602E+03
 MRCHDU: Convergence failed at  46  side 1    Res =  0.1335E+07
 MRCHDU: Convergence failed at  47  side 1    Res =  0.1025E+03
 MRCHDU: Convergence failed at  48  side 1    Res =  0.7311E+02
 MRCHDU: Convergence failed at  49  side 1    Res =  0.5953E+02
 MRCHDU: Convergence failed at  50  side 1    Res =  0.5167E+02
 MRCHDU: Convergence failed at  51  side 1    Res =  0.4674E+02
 MRCHDU: Convergence failed at  52  side 1    Res =  0.4345E+02
 MRCHDU: Convergence failed at  53  side 1    Res =  0.4126E+02
 MRCHDU: Convergence failed at  54  side 1    Res =  0.4026E+02
 MRCHDU: Convergence failed at  55  side 1    Res =  0.4026E+02
 MRCHDU: Convergence failed at  56  side 1    Res =  0.4156E+02
 MRCHDU: Convergence failed at  57  side 1    Res =  0.6507E+02
 MRCHDU: Convergence failed at  58  side 1    Res =  0.6646E+03
 MRCHDU: Convergence failed at  59  side 1    Res =  0.7791E+03
 MRCHDU: Convergence failed at  60  side 1    Res =  0.7129E+03
 MRCHDU: Convergence failed at  61  side 1    Res =  0.1159E+03
 MRCHDU: Convergence failed at  62  side 1    Res =  0.1528E+03
 MRCHDU: Convergence failed at  63  side 1    Res =  0.2363E+03
 MRCHDU: Convergence failed at  64  side 1    Res =  0.7234E+03
 MRCHDU: Convergence failed at  65  side 1    Res =  0.4542E+03
 MRCHDU: Convergence failed at  66  side 1    Res =  0.1548E+03
 MRCHDU: Convergence failed at  67  side 1    Res =  0.8687E+02
 MRCHDU: Convergence failed at  68  side 1    Res =  0.5220E+02
 MRCHDU: Convergence failed at  69  side 1    Res =  0.6209E+02
 MRCHDU: Convergence failed at  70  side 1    Res =  0.6009E+02
 MRCHDU: Convergence failed at  71  side 1    Res =  0.5775E+02
 MRCHDU: Convergence failed at  72  side 1    Res =  0.2928E+02
 MRCHDU: Convergence failed at  73  side 1    Res =  0.3941E+02
 MRCHDU: Convergence failed at  74  side 1    Res =  0.3590E+02
 MRCHDU: Convergence failed at  75  side 1    Res =  0.9994E+02
 MRCHDU: Convergence failed at  76  side 1    Res =  0.3888E+02
 MRCHDU: Convergence failed at  77  side 1    Res =  0.3386E+03
 MRCHDU: Convergence failed at  78  side 1    Res =  0.7537E+02
 MRCHDU: Convergence failed at  79  side 1    Res =  0.5121E+02
 MRCHDU: Convergence failed at  80  side 1    Res =  0.1571E+04
 MRCHDU: Convergence failed at  81  side 1    Res =  0.4597E+02
 MRCHDU: Convergence failed at  82  side 1    Res =  0.1124E+03
 MRCHDU: Convergence failed at  83  side 1    Res =  0.8086E+02
 MRCHDU: Convergence failed at  84  side 1    Res =  0.3815E+02
 MRCHDU: Convergence failed at  85  side 1    Res =  0.3894E+02
 MRCHDU: Convergence failed at  86  side 1    Res =  0.9306E+02
 MRCHDU: Convergence failed at  87  side 1    Res =  0.3207E+03
 MRCHDU: Convergence failed at  88  side 1    Res =  0.4897E+03
 MRCHDU: Convergence failed at  89  side 1    Res =  0.1902E+03
 Side 1  free  transition at x/c =  0.0307   30
 Side 2  free  transition at x/c =  0.2878   35

   2   rms: 0.9952E+00   max: 0.3657E+01   D at   79  2   RLX: 0.410
       a =  6.000      CL =  1.6808
      Cm = -0.4510     CD =  0.01969   =>   CDf =  0.00285    CDp =  0.01684

 MRCHDU: Convergence failed at  80  side 2    Res =  0.3984E+01
 MRCHDU: Convergence failed at  81  side 2    Res =  0.1658E+02
 MRCHDU: Convergence failed at  82  side 2    Res =  0.7503E+01
 MRCHDU: Convergence failed at  83  side 2    Res =  0.3659E+01
 MRCHDU: Convergence failed at  84  side 2    Res =  0.3848E+01
 MRCHDU: Convergence failed at  85  side 2    Res =  0.5514E+01
 MRCHDU: Convergence failed at  86  side 2    Res =  0.2401E+02
 MRCHDU: Convergence failed at  87  side 2    Res =  0.7294E+01
 MRCHDU: Convergence failed at  88  side 2    Res =  0.3493E+01
 MRCHDU: Convergence failed at  89  side 2    Res =  0.2642E+01
 Side 1  free  transition at x/c =  0.0323   30
 Side 2  free  transition at x/c =  0.2812   36

   3   rms: 0.5581E+00   max: -.1748E+01   D at   42  2   RLX: 0.286
       a =  6.000      CL =  1.0294
      Cm = -0.3084     CD =  0.08182   =>   CDf =  0.00326    CDp =  0.07857

 Side 1  free  transition at x/c =  0.0345   29
 Side 2  free  transition at x/c =  0.2863   37

   4   rms: 0.2093E+02   max: 0.1865E+03   T at   29  1   RLX: 0.006
       a =  6.000      CL =  1.0813
      Cm = -0.2994     CD =  0.10942   =>   CDf =  0.00343    CDp =  0.10600

 Side 1  free  transition at x/c =  0.0351   29
 Side 2  free  transition at x/c =  0.2887   38

   5   rms: 0.4231E+00   max: -.1361E+01   T at   30  1   RLX: 0.367
       a =  6.000      CL =  0.8668
      Cm = -0.2425     CD =  0.10016   =>   CDf =  0.00346    CDp =  0.09670

 MRCHDU: Convergence failed at  39  side 2    Res =  0.1900E+01
 MRCHDU: Convergence failed at  40  side 2    Res =  0.3849E+01
 MRCHDU: Convergence failed at  41  side 2    Res =  0.1464E+02
 MRCHDU: Convergence failed at  42  side 2    Res =  0.8270E+01
 MRCHDU: Convergence failed at  43  side 2    Res =  0.1104E+02
 MRCHDU: Convergence failed at  44  side 2    Res =  0.1558E+02
 MRCHDU: Convergence failed at  45  side 2    Res =  0.6567E+02
 MRCHDU: Convergence failed at  46  side 2    Res =  0.3314E+02
 MRCHDU: Convergence failed at  47  side 2    Res =  0.2368E+03
 MRCHDU: Convergence failed at  48  side 2    Res =  0.5347E+02
 MRCHDU: Convergence failed at  49  side 2    Res =  0.5225E+02
 MRCHDU: Convergence failed at  50  side 2    Res =  0.7824E+02
 MRCHDU: Convergence failed at  51  side 2    Res =  0.8181E+02
 MRCHDU: Convergence failed at  52  side 2    Res =  0.3136E+03
 MRCHDU: Convergence failed at  53  side 2    Res =  0.2145E+03
 MRCHDU: Convergence failed at  54  side 2    Res =  0.4194E+03
 MRCHDU: Convergence failed at  55  side 2    Res =  0.3558E+03
 MRCHDU: Convergence failed at  56  side 2    Res =  0.4886E+03
 MRCHDU: Convergence failed at  57  side 2    Res =  0.1196E+04
 MRCHDU: Convergence failed at  58  side 2    Res =  0.2469E+02
 MRCHDU: Convergence failed at  59  side 2    Res =  0.1141E+03
 MRCHDU: Convergence failed at  60  side 2    Res =  0.9836E+02
 MRCHDU: Convergence failed at  61  side 2    Res =  0.1664E+03
 MRCHDU: Convergence failed at  62  side 2    Res =  0.8984E+02
 MRCHDU: Convergence failed at  63  side 2    Res =  0.7669E+02
 MRCHDU: Convergence failed at  64  side 2    Res =  0.5914E+02
 MRCHDU: Convergence failed at  65  side 2    Res =  0.5056E+02
 MRCHDU: Convergence failed at  66  side 2    Res =  0.3699E+02
 MRCHDU: Convergence failed at  67  side 2    Res =  0.2844E+02
 MRCHDU: Convergence failed at  68  side 2    Res =  0.2768E+02
 MRCHDU: Convergence failed at  69  side 2    Res =  0.2152E+02
 MRCHDU: Convergence failed at  70  side 2    Res =  0.3280E+02
 MRCHDU: Convergence failed at  71  side 2    Res =  0.2814E+02
 MRCHDU: Convergence failed at  72  side 2    Res =  0.2286E+02
 MRCHDU: Convergence failed at  73  side 2    Res =  0.2634E+03
 MRCHDU: Convergence failed at  74  side 2    Res =  0.7331E+02
 MRCHDU: Convergence failed at  75  side 2    Res =  0.1813E+02
 MRCHDU: Convergence failed at  76  side 2    Res =  0.1211E+02
 Side 1  free  transition at x/c =  0.0358   29
 Side 2  free  transition at x/c =  0.2858   38

   6   rms: 0.1133E+01   max: 0.5608E+01   T at   38  2   RLX: 0.139
       a =  6.000      CL =  0.3401
      Cm = -0.0397     CD =  0.11605   =>   CDf =  0.00151    CDp =  0.11454

 MRCHDU: Convergence failed at  48  side 2    Res =  0.2782E+00
 MRCHDU: Convergence failed at  49  side 2    Res =  0.2682E+00
 MRCHDU: Convergence failed at  50  side 2    Res =  0.2591E+00
 MRCHDU: Convergence failed at  51  side 2    Res =  0.2517E+00
 MRCHDU: Convergence failed at  52  side 2    Res =  0.2448E+00
 MRCHDU: Convergence failed at  53  side 2    Res =  0.2405E+00
 MRCHDU: Convergence failed at  54  side 2    Res =  0.2381E+00
 MRCHDU: Convergence failed at  55  side 2    Res =  0.2375E+00
 MRCHDU: Convergence failed at  56  side 2    Res =  0.2390E+00
 MRCHDU: Convergence failed at  57  side 2    Res =  0.2424E+00
 MRCHDU: Convergence failed at  58  side 2    Res =  0.2467E+00
 MRCHDU: Convergence failed at  59  side 2    Res =  0.2529E+00
 MRCHDU: Convergence failed at  60  side 2    Res =  0.2600E+00
 MRCHDU: Convergence failed at  61  side 2    Res =  0.2675E+00
 MRCHDU: Convergence failed at  62  side 2    Res =  0.2768E+00
 MRCHDU: Convergence failed at  63  side 2    Res =  0.2926E+00
 MRCHDU: Convergence failed at  64  side 2    Res =  0.3093E+00
 MRCHDU: Convergence failed at  65  side 2    Res =  0.3256E+00
 MRCHDU: Convergence failed at  66  side 2    Res =  0.3383E+00
 MRCHDU: Convergence failed at  67  side 2    Res =  0.3488E+00
 MRCHDU: Convergence failed at  68  side 2    Res =  0.3603E+00
 MRCHDU: Convergence failed at  69  side 2    Res =  0.3739E+00
 MRCHDU: Convergence failed at  70  side 2    Res =  0.3886E+00
 MRCHDU: Convergence failed at  71  side 2    Res =  0.4030E+00
 MRCHDU: Convergence failed at  72  side 2    Res =  0.4175E+00
 MRCHDU: Convergence failed at  73  side 2    Res =  0.4335E+00
 MRCHDU: Convergence failed at  74  side 2    Res =  0.4507E+00
 MRCHDU: Convergence failed at  75  side 2    Res =  0.4684E+00
 MRCHDU: Convergence failed at  76  side 2    Res =  0.4896E+00
 Side 1  free  transition at x/c =  0.0377   29
 Side 2  free  transition at x/c =  0.2713   38

   7   rms: 0.9492E+00   max: -.7535E+01   T at   29  1   RLX: 0.066
       a =  6.000      CL =  0.5371
      Cm = -0.1429     CD =  0.14523   =>   CDf =  0.00164    CDp =  0.14359

 Side 1  free  transition at x/c =  0.0376   29
 Side 2  free  transition at x/c =  0.2712   37

   8   rms: 0.6296E+00   max: -.2231E+01   D at   70  2   RLX: 0.224
       a =  6.000      CL =  0.4269
      Cm = -0.1416     CD =  0.13629   =>   CDf =  0.00212    CDp =  0.13417

 Side 1  free  transition at x/c =  0.0391   28
 Side 2  free  transition at x/c =  0.2710   38

   9   rms: 0.1023E+01   max: 0.5277E+01   T at   29  1   RLX: 0.141
       a =  6.000      CL =  0.3114
      Cm = -0.1332     CD =  0.12958   =>   CDf =  0.00241    CDp =  0.12717

 Side 1  free  transition at x/c =  0.0401   29
 Side 2  free  transition at x/c =  0.2695   38

  10   rms: 0.1488E+01   max: 0.1087E+02   T at   38  2   RLX: 0.063
       a =  6.000      CL =  0.2132
      Cm = -0.1105     CD =  0.12141   =>   CDf =  0.00311    CDp =  0.11829

 Side 1  free  transition at x/c =  0.0410   28
 Side 2  free  transition at x/c =  0.2564   39

  11   rms: 0.6570E+00   max: -.6573E+01   T at   28  1   RLX: 0.076
       a =  6.000      CL =  0.2234
      Cm = -0.1098     CD =  0.12056   =>   CDf =  0.00275    CDp =  0.11782

 Side 1  free  transition at x/c =  0.0426   28
 Side 2  free  transition at x/c =  0.2570   39

  12   rms: 0.1275E+01   max: -.2358E+02   T at   28  1   RLX: 0.021
       a =  6.000      CL =  0.2215
      Cm = -0.1109     CD =  0.12203   =>   CDf =  0.00278    CDp =  0.11925

 Side 1  free  transition at x/c =  0.0442   28
 Side 2  free  transition at x/c =  0.2572   39

  13   rms: 0.7942E+00   max: -.4497E+01   T at   29  1   RLX: 0.111
       a =  6.000      CL =  0.2457
      Cm = -0.1113     CD =  0.11544   =>   CDf =  0.00273    CDp =  0.11271

 Side 1  free  transition at x/c =  0.0439   28
 Side 2  free  transition at x/c =  0.2588   39

  14   rms: 0.8984E+00   max: -.7748E+01   T at   29  1   RLX: 0.065
       a =  6.000      CL =  0.2690
      Cm = -0.1124     CD =  0.11605   =>   CDf =  0.00267    CDp =  0.11338

 Side 1  free  transition at x/c =  0.0429   28
 Side 2  free  transition at x/c =  0.2604   39

  15   rms: 0.7595E+00   max: -.1052E+02   T at   28  1   RLX: 0.048
       a =  6.000      CL =  0.2756
      Cm = -0.1146     CD =  0.11750   =>   CDf =  0.00268    CDp =  0.11483

 Side 1  free  transition at x/c =  0.0438   28
 Side 2  free  transition at x/c =  0.2620   39

  16   rms: 0.1693E+01   max: -.2065E+02   T at   29  1   RLX: 0.024
       a =  6.000      CL =  0.2952
      Cm = -0.1157     CD =  0.11886   =>   CDf =  0.00276    CDp =  0.11610

 Side 1  free  transition at x/c =  0.0427   28
 Side 2  free  transition at x/c =  0.2635   39

  17   rms: 0.8320E+00   max: -.3807E+01   T at   39  2   RLX: 0.131
       a =  6.000      CL =  0.3303
      Cm = -0.1227     CD =  0.10986   =>   CDf =  0.00275    CDp =  0.10711

 Side 1  free  transition at x/c =  0.0432   28
 Side 2  free  transition at x/c =  0.2755   40

  18   rms: 0.7077E+00   max: -.3422E+01   T at   28  1   RLX: 0.146
       a =  6.000      CL =  0.3111
      Cm = -0.1181     CD =  0.10256   =>   CDf =  0.00314    CDp =  0.09942

 Side 1  free  transition at x/c =  0.0428   28
 Side 2  free  transition at x/c =  0.2801   40

  19   rms: 0.6193E+00   max: -.2452E+01   D at   49  2   RLX: 0.204
       a =  6.000      CL =  0.3037
      Cm = -0.1126     CD =  0.09217   =>   CDf =  0.00351    CDp =  0.08866

 MRCHDU: Convergence failed at  68  side 2    Res =  0.5369E-01
 Side 1  free  transition at x/c =  0.0432   28
 Side 2  free  transition at x/c =  0.2853   40

  20   rms: 0.5725E+00   max: -.2500E+01   D at   78  2   RLX: 0.200
       a =  6.000      CL =  0.3303
      Cm = -0.1110     CD =  0.08608   =>   CDf =  0.00389    CDp =  0.08218

 MRCHDU: Convergence failed at  67  side 2    Res =  0.8330E-01
 Side 1  free  transition at x/c =  0.0435   29
 Side 2  free  transition at x/c =  0.2881   39

  21   rms: 0.7106E+00   max: -.2364E+01   D at   77  2   RLX: 0.212
       a =  6.000      CL =  0.4272
      Cm = -0.1107     CD =  0.07462   =>   CDf =  0.00427    CDp =  0.07035

 MRCHDU: Convergence failed at  39  side 2    Res =  0.5097E+01
 MRCHDU: Convergence failed at  40  side 2    Res =  0.7388E+01
 MRCHDU: Convergence failed at  41  side 2    Res =  0.1049E+02
 MRCHDU: Convergence failed at  42  side 2    Res =  0.2116E+02
 MRCHDU: Convergence failed at  43  side 2    Res =  0.2024E+02
 MRCHDU: Convergence failed at  44  side 2    Res =  0.1453E+02
 MRCHDU: Convergence failed at  45  side 2    Res =  0.2359E+02
 MRCHDU: Convergence failed at  46  side 2    Res =  0.3769E+03
 MRCHDU: Convergence failed at  47  side 2    Res =  0.2241E+02
 MRCHDU: Convergence failed at  48  side 2    Res =  0.1548E+02
 MRCHDU: Convergence failed at  49  side 2    Res =  0.1871E+02
 MRCHDU: Convergence failed at  50  side 2    Res =  0.2366E+02
 MRCHDU: Convergence failed at  51  side 2    Res =  0.3004E+02
 MRCHDU: Convergence failed at  52  side 2    Res =  0.3609E+02
 MRCHDU: Convergence failed at  53  side 2    Res =  0.3904E+02
 MRCHDU: Convergence failed at  54  side 2    Res =  0.4033E+02
 MRCHDU: Convergence failed at  55  side 2    Res =  0.4701E+02
 MRCHDU: Convergence failed at  56  side 2    Res =  0.5265E+02
 MRCHDU: Convergence failed at  57  side 2    Res =  0.4955E+02
 MRCHDU: Convergence failed at  58  side 2    Res =  0.5244E+02
 MRCHDU: Convergence failed at  59  side 2    Res =  0.4987E+02
 MRCHDU: Convergence failed at  60  side 2    Res =  0.5386E+02
 MRCHDU: Convergence failed at  61  side 2    Res =  0.5548E+02
 MRCHDU: Convergence failed at  62  side 2    Res =  0.9872E+02
 MRCHDU: Convergence failed at  63  side 2    Res =  0.2137E+03
 MRCHDU: Convergence failed at  64  side 2    Res =  0.5179E+02
 MRCHDU: Convergence failed at  65  side 2    Res =  0.4018E+02
 MRCHDU: Convergence failed at  66  side 2    Res =  0.5020E+01
 MRCHDU: Convergence failed at  67  side 2    Res =  0.1168E+02
 MRCHDU: Convergence failed at  68  side 2    Res =  0.1518E+02
 MRCHDU: Convergence failed at  69  side 2    Res =  0.1041E+02
 MRCHDU: Convergence failed at  71  side 2    Res =  0.4194E+01
 MRCHDU: Convergence failed at  72  side 2    Res =  0.3287E+01
 MRCHDU: Convergence failed at  73  side 2    Res =  0.2141E+01
 MRCHDU: Convergence failed at  74  side 2    Res =  0.2544E+01
 MRCHDU: Convergence failed at  75  side 2    Res =  0.2667E+01
 MRCHDU: Convergence failed at  76  side 2    Res =  0.3948E+01
 Side 1  free  transition at x/c =  0.0426   30
 Side 2  free  transition at x/c =  0.2949   39

  22   rms: 0.1354E+01   max: 0.7633E+01   D at    2  1   RLX: 0.119
       a =  6.000      CL =  0.0266
      Cm =  0.0963     CD =  0.06122   =>   CDf =  0.00304    CDp =  0.05818

 Side 1  free  transition at x/c =  0.0389   29
 Side 2  free  transition at x/c =  0.3007   39

  23   rms: 0.1081E+01   max: -.9881E+01   T at   30  1   RLX: 0.051
       a =  6.000      CL =  0.1307
      Cm =  0.0772     CD =  0.07512   =>   CDf =  0.00781    CDp =  0.06731

 Side 1  free  transition at x/c =  0.0375   30
 Side 2  free  transition at x/c =  0.3013   38

  24   rms: 0.9282E+00   max: 0.8712E+01   T at   30  1   RLX: 0.162
       a =  6.000      CL =  0.3146
      Cm =  0.0335     CD =  0.06612   =>   CDf =  0.00763    CDp =  0.05849

 Side 1  free  transition at x/c =  0.0339   29
 Side 2  free  transition at x/c =  0.3035   38

  25   rms: 0.1158E+01   max: 0.1047E+02   T at   29  1   RLX: 0.107
       a =  6.000      CL =  0.4848
      Cm =  0.0061     CD =  0.06430   =>   CDf =  0.00719    CDp =  0.05712
 VISCAL:  Convergence failed
 Calculating wake trajectory ...
 Calculating source influence matrix ...

 Solving BL system ...

 MRCHDU: Convergence failed at  74  side 1    Res =  0.2348E+01
 MRCHDU: Convergence failed at  75  side 1    Res =  0.4292E+01
 MRCHDU: Convergence failed at  76  side 1    Res =  0.9181E+01
 MRCHDU: Convergence failed at  77  side 1    Res =  0.2215E+01
 MRCHDU: Convergence failed at  78  side 1    Res =  0.1405E+01
 MRCHDU: Convergence failed at  79  side 1    Res =  0.3149E+01
 Side 1  free  transition at x/c =  0.0318   30
 Side 2  free  transition at x/c =  0.3083   38

   1   rms: 0.9431E+00   max: 0.5618E+01   T at   30  1   RLX: 0.192
       a =  7.000      CL =  0.6148
      Cm = -0.0548     CD =  0.04896   =>   CDf =  0.00706    CDp =  0.04190

 MRCHDU: Convergence failed at  30  side 1    Res =  0.1008E+02
 MRCHDU: Convergence failed at  31  side 1    Res =  0.1139E+02
 MRCHDU: Convergence failed at  60  side 1    Res =  0.1935E+00
 Side 1  free  transition at x/c =  0.0319   30
 Side 2  free  transition at x/c =  0.3094   38

   2   rms: 0.9825E+00   max: 0.6961E+01   T at   30  1   RLX: 0.127
       a =  7.000      CL =  0.8172
      Cm = -0.0681     CD =  0.04385   =>   CDf =  0.00724    CDp =  0.03661

 MRCHDU: Convergence failed at  75  side 1    Res =  0.2808E+01
 MRCHDU: Convergence failed at  76  side 1    Res =  0.2917E+01
 MRCHDU: Convergence failed at  77  side 1    Res =  0.3185E+01
 MRCHDU: Convergence failed at  78  side 1    Res =  0.3558E+01
 MRCHDU: Convergence failed at  79  side 1    Res =  0.4014E+01
 MRCHDU: Convergence failed at  80  side 1    Res =  0.4664E+01
 MRCHDU: Convergence failed at  81  side 1    Res =  0.4019E+01
 MRCHDU: Convergence failed at  82  side 1    Res =  0.2985E+01
 MRCHDU: Convergence failed at  83  side 1    Res =  0.9209E+01
 MRCHDU: Convergence failed at  84  side 1    Res =  0.1903E+01
 MRCHDU: Convergence failed at  85  side 1    Res =  0.2509E+01
 MRCHDU: Convergence failed at  86  side 1    Res =  0.3513E+01
 MRCHDU: Convergence failed at  87  side 1    Res =  0.8091E+01
 MRCHDU: Convergence failed at  88  side 1    Res =  0.5429E+01
 MRCHDU: Convergence failed at  89  side 1    Res =  0.4295E+01
 Side 1  free  transition at x/c =  0.0299   30
 Side 2  free  transition at x/c =  0.3139   37

   3   rms: 0.4384E+00   max: -.1574E+01   D at   65  1   RLX: 0.318
       a =  7.000      CL =  0.9151
      Cm = -0.1260     CD =  0.04158   =>   CDf =  0.00664    CDp =  0.03494

 MRCHDU: Convergence failed at  64  side 2    Res =  0.2245E+00
 MRCHDU: Convergence failed at  65  side 2    Res =  0.4270E+00
 MRCHDU: Convergence failed at  66  side 2    Res =  0.2150E+00
 Side 1  free  transition at x/c =  0.0289   30
 Side 2  free  transition at x/c =  0.3102   37

   4   rms: 0.5619E+00   max: -.2569E+01   D at   73  1   RLX: 0.195
       a =  7.000      CL =  0.9481
      Cm = -0.1088     CD =  0.04391   =>   CDf =  0.00715    CDp =  0.03676

 MRCHDU: Convergence failed at  74  side 1    Res =  0.1162E+00
 MRCHDU: Convergence failed at  75  side 1    Res =  0.5664E+00
 MRCHDU: Convergence failed at  76  side 1    Res =  0.4120E+00
 Side 1  free  transition at x/c =  0.0278   30
 Side 2  free  transition at x/c =  0.3123   37

   5   rms: 0.5743E+00   max: -.1947E+01   D at   45  1   RLX: 0.257
       a =  7.000      CL =  1.0081
      Cm = -0.1456     CD =  0.03717   =>   CDf =  0.00734    CDp =  0.02984

 Side 1  free  transition at x/c =  0.0279   31
 Side 2  free  transition at x/c =  0.3116   36

   6   rms: 0.3829E+00   max: -.1261E+01   D at   70  1   RLX: 0.396
       a =  7.000      CL =  1.0589
      Cm = -0.1546     CD =  0.03020   =>   CDf =  0.00836    CDp =  0.02184

 MRCHDU: Convergence failed at  79  side 1    Res =  0.2639E+01
 MRCHDU: Convergence failed at  80  side 1    Res =  0.2612E+01
 MRCHDU: Convergence failed at  81  side 1    Res =  0.2866E+01
 MRCHDU: Convergence failed at  82  side 1    Res =  0.3845E+01
 MRCHDU: Convergence failed at  83  side 1    Res =  0.5562E+01
 MRCHDU: Convergence failed at  84  side 1    Res =  0.7782E+01
 MRCHDU: Convergence failed at  85  side 1    Res =  0.4876E+02
 MRCHDU: Convergence failed at  86  side 1    Res =  0.1475E+03
 MRCHDU: Convergence failed at  87  side 1    Res =  0.1122E+02
 MRCHDU: Convergence failed at  88  side 1    Res =  0.6404E+01
 MRCHDU: Convergence failed at  89  side 1    Res =  0.4525E+01
 MRCHDU: Convergence failed at  90  side 1    Res =  0.3957E+01
 Side 1  free  transition at x/c =  0.0272   30
 Side 2  free  transition at x/c =  0.3123   36

   7   rms: 0.2701E+00   max: -.1011E+01   D at   69  1   RLX: 0.495
       a =  7.000      CL =  1.0784
      Cm = -0.1830     CD =  0.02387   =>   CDf =  0.00856    CDp =  0.01531

 Side 1  free  transition at x/c =  0.0273   31
 Side 2  free  transition at x/c =  0.3088   36

   8   rms: 0.4615E+00   max: 0.1832E+01   T at   31  1   RLX: 0.324
       a =  7.000      CL =  1.1425
      Cm = -0.1750     CD =  0.02722   =>   CDf =  0.00847    CDp =  0.01874

 MRCHDU: Convergence failed at  79  side 1    Res =  0.1994E+01
 MRCHDU: Convergence failed at  80  side 1    Res =  0.8451E+00
 MRCHDU: Convergence failed at  81  side 1    Res =  0.9149E+00
 MRCHDU: Convergence failed at  82  side 1    Res =  0.1170E+01
 MRCHDU: Convergence failed at  83  side 1    Res =  0.1644E+01
 MRCHDU: Convergence failed at  84  side 1    Res =  0.3701E+01
 MRCHDU: Convergence failed at  85  side 1    Res =  0.4503E+01
 MRCHDU: Convergence failed at  86  side 1    Res =  0.1343E+01
 MRCHDU: Convergence failed at  87  side 1    Res =  0.8707E+00
 MRCHDU: Convergence failed at  88  side 1    Res =  0.1017E+01
 MRCHDU: Convergence failed at  89  side 1    Res =  0.1544E+01
 MRCHDU: Convergence failed at  90  side 1    Res =  0.2338E+01
 MRCHDU: Convergence failed at  91  side 1    Res =  0.3537E+01
 Side 1  free  transition at x/c =  0.0263   31
 Side 2  free  transition at x/c =  0.3116   35

   9   rms: 0.5061E+00   max: 0.1326E+01   D at   72  2   RLX: 0.666
       a =  7.000      CL =  1.3368
      Cm = -0.2352     CD =  0.01881   =>   CDf =  0.01051    CDp =  0.00830

 Side 1  free  transition at x/c =  0.0241   31
 Side 2  free  transition at x/c =  0.3157   35

  10   rms: 0.1952E+00   max: 0.6082E+00   D at   79  2   RLX: 0.944
       a =  7.000      CL =  1.1312
      Cm = -0.1710     CD =  0.03406   =>   CDf =  0.00884    CDp =  0.02521

 Side 1  free  transition at x/c =  0.0252   30
 Side 2  free  transition at x/c =  0.3082   36

  11   rms: 0.1216E+00   max: -.4710E+00   D at   43  1
       a =  7.000      CL =  1.0721
      Cm = -0.1624     CD =  0.03502   =>   CDf =  0.00759    CDp =  0.02743

 Side 1  free  transition at x/c =  0.0263   30
 Side 2  free  transition at x/c =  0.3072   36

  12   rms: 0.5179E-01   max: -.2305E+00   D at   42  1
       a =  7.000      CL =  1.0543
      Cm = -0.1596     CD =  0.03472   =>   CDf =  0.00825    CDp =  0.02647

 Side 1  free  transition at x/c =  0.0264   30
 Side 2  free  transition at x/c =  0.3058   35

  13   rms: 0.3832E-02   max: -.5802E-01   D at   35  2
       a =  7.000      CL =  1.0544
      Cm = -0.1596     CD =  0.03473   =>   CDf =  0.00849    CDp =  0.02624

 Side 1  free  transition at x/c =  0.0264   30
 Side 2  free  transition at x/c =  0.3059   35

  14   rms: 0.6709E-03   max: 0.4826E-02   D at   36  2
       a =  7.000      CL =  1.0541
      Cm = -0.1596     CD =  0.03472   =>   CDf =  0.00848    CDp =  0.02623

 Side 1  free  transition at x/c =  0.0264   30
 Side 2  free  transition at x/c =  0.3059   35

  15   rms: 0.4226E-04   max: 0.1388E-03   T at   90  1
       a =  7.000      CL =  1.0542
      Cm = -0.1596     CD =  0.03472   =>   CDf =  0.00848    CDp =  0.02624

 Point added to stored polar  1
 Point written to save file  000046M0.04.log                                 
 Dump file unspecified or not available
 Calculating wake trajectory ...
 Calculating source influence matrix ...

 Solving BL system ...

 Side 1  free  transition at x/c =  0.0264   30
 Side 2  free  transition at x/c =  0.3059   35

   1   rms: 0.4553E+00   max: 0.1475E+01   D at   38  1   RLX: 0.401
       a =  8.000      CL =  1.2001
      Cm = -0.1734     CD =  0.04085   =>   CDf =  0.00826    CDp =  0.03259

 MRCHDU: Convergence failed at  35  side 2    Res =  0.3337E+01
 MRCHDU: Convergence failed at  36  side 2    Res =  0.5209E+02
 MRCHDU: Convergence failed at  37  side 2    Res =  0.1001E+02
 MRCHDU: Convergence failed at  38  side 2    Res =  0.7435E+01
 MRCHDU: Convergence failed at  39  side 2    Res =  0.1345E+02
 MRCHDU: Convergence failed at  40  side 2    Res =  0.1520E+02
 MRCHDU: Convergence failed at  41  side 2    Res =  0.1583E+02
 MRCHDU: Convergence failed at  42  side 2    Res =  0.1554E+02
 MRCHDU: Convergence failed at  43  side 2    Res =  0.1363E+02
 MRCHDU: Convergence failed at  44  side 2    Res =  0.1694E+02
 MRCHDU: Convergence failed at  45  side 2    Res =  0.2091E+02
 MRCHDU: Convergence failed at  46  side 2    Res =  0.2406E+02
 MRCHDU: Convergence failed at  47  side 2    Res =  0.2567E+02
 MRCHDU: Convergence failed at  48  side 2    Res =  0.2673E+02
 MRCHDU: Convergence failed at  49  side 2    Res =  0.2760E+02
 MRCHDU: Convergence failed at  50  side 2    Res =  0.2790E+02
 MRCHDU: Convergence failed at  51  side 2    Res =  0.2758E+02
 MRCHDU: Convergence failed at  52  side 2    Res =  0.2686E+02
 MRCHDU: Convergence failed at  53  side 2    Res =  0.2558E+02
 MRCHDU: Convergence failed at  54  side 2    Res =  0.2420E+02
 MRCHDU: Convergence failed at  55  side 2    Res =  0.2235E+02
 MRCHDU: Convergence failed at  56  side 2    Res =  0.2300E+02
 MRCHDU: Convergence failed at  57  side 2    Res =  0.1849E+02
 MRCHDU: Convergence failed at  58  side 2    Res =  0.2000E+02
 MRCHDU: Convergence failed at  59  side 2    Res =  0.4967E+02
 MRCHDU: Convergence failed at  60  side 2    Res =  0.1708E+03
 MRCHDU: Convergence failed at  61  side 2    Res =  0.3072E+02
 MRCHDU: Convergence failed at  62  side 2    Res =  0.3857E+02
 MRCHDU: Convergence failed at  63  side 2    Res =  0.5285E+02
 MRCHDU: Convergence failed at  64  side 2    Res =  0.1087E+03
 MRCHDU: Convergence failed at  65  side 2    Res =  0.5945E+03
 MRCHDU: Convergence failed at  66  side 2    Res =  0.2229E+03
 MRCHDU: Convergence failed at  67  side 2    Res =  0.1521E+03
 MRCHDU: Convergence failed at  68  side 2    Res =  0.2694E+03
 MRCHDU: Convergence failed at  69  side 2    Res =  0.1568E+03
 MRCHDU: Convergence failed at  70  side 2    Res =  0.4138E+02
 MRCHDU: Convergence failed at  71  side 2    Res =  0.1407E+02
 Side 1  free  transition at x/c =  0.0246   31
 Side 2  free  transition at x/c =  0.3189   35

   2   rms: 0.7283E+00   max: 0.2724E+01   C at   35  2   RLX: 0.350
       a =  8.000      CL =  0.9032
      Cm = -0.0666     CD =  0.03968   =>   CDf =  0.00553    CDp =  0.03415

 MRCHDU: Convergence failed at  46  side 2    Res =  0.9733E-01
 Side 1  free  transition at x/c =  0.0263   31
 Side 2  free  transition at x/c =  0.3050   34

   3   rms: 0.4388E+00   max: 0.5363E+01   D at   46  2   RLX: 0.233
       a =  8.000      CL =  1.0349
      Cm = -0.1116     CD =  0.05035   =>   CDf =  0.00603    CDp =  0.04433

 Side 1  free  transition at x/c =  0.0263   31
 Side 2  free  transition at x/c =  0.2928   34

   4   rms: 0.1747E+00   max: -.4480E+00   D at   71  2   RLX: 0.686
       a =  8.000      CL =  1.1147
      Cm = -0.1373     CD =  0.05277   =>   CDf =  0.00572    CDp =  0.04705

 Side 1  free  transition at x/c =  0.0263   31
 Side 2  free  transition at x/c =  0.2949   34

   5   rms: 0.1883E+00   max: -.9578E+00   D at   62  2   RLX: 0.522
       a =  8.000      CL =  1.1567
      Cm = -0.1497     CD =  0.05276   =>   CDf =  0.00566    CDp =  0.04710

 Side 1  free  transition at x/c =  0.0265   31
 Side 2  free  transition at x/c =  0.3031   34

   6   rms: 0.4187E+00   max: 0.3843E+01   T at   34  2   RLX: 0.269
       a =  8.000      CL =  1.1331
      Cm = -0.1440     CD =  0.05476   =>   CDf =  0.00583    CDp =  0.04894

 MRCHDU: Convergence failed at  46  side 2    Res =  0.1930E+01
 Side 1  free  transition at x/c =  0.0263   31
 Side 2  free  transition at x/c =  0.2891   34

   7   rms: 0.1612E+00   max: -.8319E+00   D at   63  2   RLX: 0.601
       a =  8.000      CL =  1.1395
      Cm = -0.1450     CD =  0.05428   =>   CDf =  0.00548    CDp =  0.04879

 Side 1  free  transition at x/c =  0.0262   31
 Side 2  free  transition at x/c =  0.2915   34

   8   rms: 0.1570E+00   max: -.8501E+00   D at   63  2   RLX: 0.588
       a =  8.000      CL =  1.1524
      Cm = -0.1492     CD =  0.05338   =>   CDf =  0.00561    CDp =  0.04777

 Side 1  free  transition at x/c =  0.0263   31
 Side 2  free  transition at x/c =  0.2965   34

   9   rms: 0.2398E+00   max: -.1240E+01   T at   34  2   RLX: 0.403
       a =  8.000      CL =  1.1707
      Cm = -0.1542     CD =  0.05272   =>   CDf =  0.00578    CDp =  0.04693

 Side 1  free  transition at x/c =  0.0264   31
 Side 2  free  transition at x/c =  0.3068   35

  10   rms: 0.1304E+00   max: -.6978E+00   D at   63  2   RLX: 0.717
       a =  8.000      CL =  1.1721
      Cm = -0.1554     CD =  0.05108   =>   CDf =  0.00624    CDp =  0.04484

 Side 1  free  transition at x/c =  0.0264   31
 Side 2  free  transition at x/c =  0.3105   35

  11   rms: 0.1125E+00   max: -.5269E+00   D at   39  2   RLX: 0.949
       a =  8.000      CL =  1.1747
      Cm = -0.1566     CD =  0.05027   =>   CDf =  0.00634    CDp =  0.04393

 Side 1  free  transition at x/c =  0.0264   31
 Side 2  free  transition at x/c =  0.3177   35

  12   rms: 0.2771E-01   max: -.1676E+00   D at   35  2
       a =  8.000      CL =  1.1744
      Cm = -0.1566     CD =  0.05021   =>   CDf =  0.00662    CDp =  0.04360

 Side 1  free  transition at x/c =  0.0264   31
 Side 2  free  transition at x/c =  0.3181   35

  13   rms: 0.1689E-02   max: 0.1479E-01   D at   36  2
       a =  8.000      CL =  1.1742
      Cm = -0.1566     CD =  0.05023   =>   CDf =  0.00667    CDp =  0.04356

 Side 1  free  transition at x/c =  0.0264   31
 Side 2  free  transition at x/c =  0.3179   35

  14   rms: 0.9998E-05   max: 0.1132E-03   D at   36  2
       a =  8.000      CL =  1.1742
      Cm = -0.1566     CD =  0.05023   =>   CDf =  0.00667    CDp =  0.04356

 Point added to stored polar  1
 Point written to save file  000046M0.04.log                                 
 Dump file unspecified or not available
 Calculating wake trajectory ...
 Calculating source influence matrix ...

 Solving BL system ...

 Side 1  free  transition at x/c =  0.0264   31
 Side 2  free  transition at x/c =  0.3179   35

   1   rms: 0.1743E+00   max: -.1206E+01   T at   31  1   RLX: 0.415
       a =  9.000      CL =  1.2036
      Cm = -0.1535     CD =  0.05567   =>   CDf =  0.00652    CDp =  0.04915

 Side 1  free  transition at x/c =  0.0290   33
 Side 2  free  transition at x/c =  0.3227   34

   2   rms: 0.1985E+00   max: 0.2272E+01   T at   33  1   RLX: 0.660
       a =  9.000      CL =  1.2437
      Cm = -0.1541     CD =  0.04724   =>   CDf =  0.00760    CDp =  0.03963

 MRCHDU: Convergence failed at  40  side 1    Res =  0.2420E+01
 MRCHDU: Convergence failed at  41  side 1    Res =  0.1792E+01
 MRCHDU: Convergence failed at  42  side 1    Res =  0.1170E+01
 MRCHDU: Convergence failed at  43  side 1    Res =  0.1162E+01
 MRCHDU: Convergence failed at  44  side 1    Res =  0.1833E+01
 MRCHDU: Convergence failed at  45  side 1    Res =  0.2557E+01
 MRCHDU: Convergence failed at  46  side 1    Res =  0.3841E+01
 MRCHDU: Convergence failed at  47  side 1    Res =  0.7229E+01
 MRCHDU: Convergence failed at  48  side 1    Res =  0.4848E+02
 MRCHDU: Convergence failed at  49  side 1    Res =  0.1245E+02
 MRCHDU: Convergence failed at  50  side 1    Res =  0.5759E+01
 MRCHDU: Convergence failed at  51  side 1    Res =  0.4020E+01
 MRCHDU: Convergence failed at  52  side 1    Res =  0.3448E+01
 MRCHDU: Convergence failed at  53  side 1    Res =  0.3058E+01
 MRCHDU: Convergence failed at  54  side 1    Res =  0.3020E+01
 MRCHDU: Convergence failed at  55  side 1    Res =  0.3045E+01
 MRCHDU: Convergence failed at  56  side 1    Res =  0.3123E+01
 MRCHDU: Convergence failed at  57  side 1    Res =  0.2476E+01
 MRCHDU: Convergence failed at  58  side 1    Res =  0.2711E+01
 MRCHDU: Convergence failed at  59  side 1    Res =  0.3083E+01
 MRCHDU: Convergence failed at  60  side 1    Res =  0.3367E+01
 MRCHDU: Convergence failed at  61  side 1    Res =  0.3653E+01
 MRCHDU: Convergence failed at  62  side 1    Res =  0.3932E+01
 MRCHDU: Convergence failed at  63  side 1    Res =  0.4190E+01
 MRCHDU: Convergence failed at  64  side 1    Res =  0.4412E+01
 MRCHDU: Convergence failed at  65  side 1    Res =  0.4928E+01
 MRCHDU: Convergence failed at  66  side 1    Res =  0.4684E+01
 MRCHDU: Convergence failed at  67  side 1    Res =  0.4718E+01
 MRCHDU: Convergence failed at  68  side 1    Res =  0.4674E+01
 MRCHDU: Convergence failed at  69  side 1    Res =  0.4566E+01
 MRCHDU: Convergence failed at  70  side 1    Res =  0.4090E+01
 MRCHDU: Convergence failed at  71  side 1    Res =  0.3924E+01
 MRCHDU: Convergence failed at  72  side 1    Res =  0.3466E+01
 MRCHDU: Convergence failed at  73  side 1    Res =  0.6423E+01
 MRCHDU: Convergence failed at  74  side 1    Res =  0.8306E+01
 MRCHDU: Convergence failed at  75  side 1    Res =  0.1131E+02
 MRCHDU: Convergence failed at  76  side 1    Res =  0.2002E+02
 MRCHDU: Convergence failed at  77  side 1    Res =  0.6049E+02
 MRCHDU: Convergence failed at  78  side 1    Res =  0.2379E+02
 MRCHDU: Convergence failed at  79  side 1    Res =  0.2579E+02
 MRCHDU: Convergence failed at  80  side 1    Res =  0.5830E+02
 MRCHDU: Convergence failed at  81  side 1    Res =  0.1409E+02
 MRCHDU: Convergence failed at  82  side 1    Res =  0.1803E+02
 MRCHDU: Convergence failed at  83  side 1    Res =  0.3240E+02
 MRCHDU: Convergence failed at  84  side 1    Res =  0.9637E+02
 MRCHDU: Convergence failed at  85  side 1    Res =  0.7928E+04
 MRCHDU: Convergence failed at  86  side 1    Res =  0.2940E+02
 MRCHDU: Convergence failed at  87  side 1    Res =  0.2239E+02
 MRCHDU: Convergence failed at  88  side 1    Res =  0.1324E+02
 MRCHDU: Convergence failed at  89  side 1    Res =  0.9351E+01
 MRCHDU: Convergence failed at  90  side 1    Res =  0.1039E+02
 MRCHDU: Convergence failed at  91  side 1    Res =  0.1292E+02
 MRCHDU: Convergence failed at  92  side 1    Res =  0.1437E+02
 Side 1  free  transition at x/c =  0.0238   32
 Side 2  free  transition at x/c =  0.3305   35

   3   rms: 0.6933E+00   max: 0.2035E+01   D at   74  2   RLX: 0.489
       a =  9.000      CL =  1.9541
      Cm = -0.4099     CD =  0.02472   =>   CDf =  0.00351    CDp =  0.02121

 Side 1  free  transition at x/c =  0.0234   31
 Side 2  free  transition at x/c =  0.3313   35

   4   rms: 0.5153E+00   max: 0.1379E+01   D at   71  2   RLX: 0.660
       a =  9.000      CL =  1.6445
      Cm = -0.2553     CD =  0.02846   =>   CDf =  0.01202    CDp =  0.01644

 Side 1  free  transition at x/c =  0.0244   33
 Side 2  free  transition at x/c =  0.3397   34

   5   rms: 0.3021E+00   max: 0.7395E+00   D at   41  1
       a =  9.000      CL =  1.3283
      Cm = -0.1610     CD =  0.04619   =>   CDf =  0.00920    CDp =  0.03700

 MRCHDU: Convergence failed at  92  side 1    Res =  0.8552E+00
 MRCHDU: Convergence failed at  93  side 1    Res =  0.9486E+00
 Side 1  free  transition at x/c =  0.0234   32
 Side 2  free  transition at x/c =  0.3346   34

   6   rms: 0.8543E-01   max: -.1847E+00   D at   87  1
       a =  9.000      CL =  1.2384
      Cm = -0.1499     CD =  0.05418   =>   CDf =  0.00646    CDp =  0.04771

 Side 1  free  transition at x/c =  0.0235   31
 Side 2  free  transition at x/c =  0.3306   35

   7   rms: 0.5012E-01   max: -.1641E+00   T at   31  1
       a =  9.000      CL =  1.2518
      Cm = -0.1520     CD =  0.05538   =>   CDf =  0.00697    CDp =  0.04841

 Side 1  free  transition at x/c =  0.0235   31
 Side 2  free  transition at x/c =  0.3310   35

   8   rms: 0.6077E-01   max: -.1824E+00   T at   31  1
       a =  9.000      CL =  1.2541
      Cm = -0.1524     CD =  0.05537   =>   CDf =  0.00704    CDp =  0.04834

 Side 1  free  transition at x/c =  0.0235   31
 Side 2  free  transition at x/c =  0.3311   35

   9   rms: 0.7116E-01   max: -.2121E+00   T at   31  1
       a =  9.000      CL =  1.2560
      Cm = -0.1526     CD =  0.05545   =>   CDf =  0.00709    CDp =  0.04836

 Side 1  free  transition at x/c =  0.0235   31
 Side 2  free  transition at x/c =  0.3312   35

  10   rms: 0.7481E-01   max: -.2174E+00   T at   31  1
       a =  9.000      CL =  1.2571
      Cm = -0.1528     CD =  0.05546   =>   CDf =  0.00712    CDp =  0.04835

 Side 1  free  transition at x/c =  0.0235   31
 Side 2  free  transition at x/c =  0.3313   35

  11   rms: 0.7788E-01   max: -.2283E+00   T at   31  1
       a =  9.000      CL =  1.2577
      Cm = -0.1529     CD =  0.05549   =>   CDf =  0.00713    CDp =  0.04836

 Side 1  free  transition at x/c =  0.0235   31
 Side 2  free  transition at x/c =  0.3313   35

  12   rms: 0.7961E-01   max: -.2316E+00   T at   31  1
       a =  9.000      CL =  1.2583
      Cm = -0.1530     CD =  0.05549   =>   CDf =  0.00714    CDp =  0.04835

 Side 1  free  transition at x/c =  0.0235   31
 Side 2  free  transition at x/c =  0.3313   35

  13   rms: 0.8084E-01   max: -.2362E+00   T at   31  1
       a =  9.000      CL =  1.2586
      Cm = -0.1530     CD =  0.05550   =>   CDf =  0.00715    CDp =  0.04836

 Side 1  free  transition at x/c =  0.0235   31
 Side 2  free  transition at x/c =  0.3313   35

  14   rms: 0.8180E-01   max: -.2385E+00   T at   31  1
       a =  9.000      CL =  1.2588
      Cm = -0.1531     CD =  0.05551   =>   CDf =  0.00715    CDp =  0.04835

 Side 1  free  transition at x/c =  0.0235   31
 Side 2  free  transition at x/c =  0.3313   35

  15   rms: 0.8245E-01   max: -.2408E+00   T at   31  1
       a =  9.000      CL =  1.2590
      Cm = -0.1531     CD =  0.05551   =>   CDf =  0.00715    CDp =  0.04836

[...]

 MRCHDU: Convergence failed at  56  side 2    Res =  0.4234E+00
 MRCHDU: Convergence failed at  57  side 2    Res =  0.8015E+00
 MRCHDU: Convergence failed at  58  side 2    Res =  0.2314E+00
 MRCHDU: Convergence failed at  59  side 2    Res =  0.2018E+00
 MRCHDU: Convergence failed at  60  side 2    Res =  0.1673E+00
 MRCHDU: Convergence failed at  61  side 2    Res =  0.1406E+00
 MRCHDU: Convergence failed at  62  side 2    Res =  0.1254E+00
 MRCHDU: Convergence failed at  63  side 2    Res =  0.1150E+00
 MRCHDU: Convergence failed at  64  side 2    Res =  0.6396E+00
 MRCHDU: Convergence failed at  65  side 2    Res =  0.8577E+00
 MRCHDU: Convergence failed at  66  side 2    Res =  0.8576E+00
 MRCHDU: Convergence failed at  67  side 2    Res =  0.8739E+00
 MRCHDU: Convergence failed at  68  side 2    Res =  0.8918E+00
 MRCHDU: Convergence failed at  69  side 2    Res =  0.9215E+00
 MRCHDU: Convergence failed at  70  side 2    Res =  0.9633E+00
 MRCHDU: Convergence failed at  71  side 2    Res =  0.1003E+01
 MRCHDU: Convergence failed at  72  side 2    Res =  0.1406E+01
 Side 1  free  transition at x/c =  0.0278   31
 Side 2  free  transition at x/c =  0.3167   36

  20   rms: 0.2173E+01   max: -.9600E+01   T at   31  1   RLX: 0.052
       a = 11.000      CL =  0.4866
      Cm = -0.0932     CD =  0.18586   =>   CDf =  0.00147    CDp =  0.18439

 Side 1  free  transition at x/c =  0.0295   30
 Side 2  free  transition at x/c =  0.3238   37

  21   rms: 0.4450E+00   max: 0.3299E+01   T at   37  2   RLX: 0.247
       a = 11.000      CL =  0.5538
      Cm = -0.1004     CD =  0.16463   =>   CDf =  0.00163    CDp =  0.16300

 Side 1  free  transition at x/c =  0.0326   31
 Side 2  free  transition at x/c =  0.3072   37

  22   rms: 0.9643E+00   max: -.2777E+01   D at   68  2   RLX: 0.180
       a = 11.000      CL =  0.6054
      Cm = -0.0841     CD =  0.13428   =>   CDf =  0.00158    CDp =  0.13270

 Side 1  free  transition at x/c =  0.0328   32
 Side 2  free  transition at x/c =  0.3127   36

  23   rms: 0.1923E+01   max: 0.6303E+01   T at   32  1   RLX: 0.084
       a = 11.000      CL =  0.7134
      Cm = -0.0752     CD =  0.12472   =>   CDf =  0.00187    CDp =  0.12286

 MRCHDU: Convergence failed at  66  side 1    Res =  0.3610E+01
 MRCHDU: Convergence failed at  67  side 1    Res =  0.6458E+01
 MRCHDU: Convergence failed at  68  side 1    Res =  0.2027E+01
 MRCHDU: Convergence failed at  69  side 1    Res =  0.1254E+01
 MRCHDU: Convergence failed at  70  side 1    Res =  0.2037E+01
 MRCHDU: Convergence failed at  71  side 1    Res =  0.7989E+01
 MRCHDU: Convergence failed at  72  side 1    Res =  0.2817E+01
 MRCHDU: Convergence failed at  73  side 1    Res =  0.1307E+01
 MRCHDU: Convergence failed at  74  side 1    Res =  0.1113E+01
 MRCHDU: Convergence failed at  76  side 1    Res =  0.1030E+01
 Side 1  free  transition at x/c =  0.0309   32
 Side 2  free  transition at x/c =  0.3243   35

  24   rms: 0.4854E+00   max: -.1671E+01   D at   71  2   RLX: 0.299
       a = 11.000      CL =  0.8642
      Cm = -0.1128     CD =  0.11017   =>   CDf =  0.00209    CDp =  0.10807

 Side 1  free  transition at x/c =  0.0308   32
 Side 2  free  transition at x/c =  0.3198   35

  25   rms: 0.3446E+01   max: -.2287E+02   T at   35  2   RLX: 0.022
       a = 11.000      CL =  0.8719
      Cm = -0.1013     CD =  0.11683   =>   CDf =  0.00267    CDp =  0.11417
 VISCAL:  Convergence failed
 Calculating wake trajectory ...
 Calculating source influence matrix ...

 Solving BL system ...

 Side 1  free  transition at x/c =  0.0295   32
 Side 2  free  transition at x/c =  0.3323   36

   1   rms: 0.1487E+01   max: -.1468E+02   T at   32  1   RLX: 0.034
       a = 12.000      CL =  0.8871
      Cm = -0.1031     CD =  0.11348   =>   CDf =  0.00301    CDp =  0.11047

 Side 1  free  transition at x/c =  0.0290   32
 Side 2  free  transition at x/c =  0.3322   36

   2   rms: 0.1087E+01   max: 0.4485E+01   D at   77  1   RLX: 0.334
       a = 12.000      CL =  0.7165
      Cm = -0.1305     CD =  0.16033   =>   CDf =  0.00257    CDp =  0.15776

 Side 1  free  transition at x/c =  0.0295   31
 Side 2  free  transition at x/c =  0.3190   36

   3   rms: 0.7043E+00   max: 0.1979E+01   D at   48  1   RLX: 0.447
       a = 12.000      CL =  0.6263
      Cm = -0.1324     CD =  0.19133   =>   CDf =  0.00243    CDp =  0.18889

 Side 1  free  transition at x/c =  0.0296   30
 Side 2  free  transition at x/c =  0.3078   37

   4   rms: 0.2562E+00   max: -.9949E+00   D at   66  2   RLX: 0.503
       a = 12.000      CL =  0.5951
      Cm = -0.1087     CD =  0.15580   =>   CDf =  0.00245    CDp =  0.15335

 Side 1  free  transition at x/c =  0.0306   30
 Side 2  free  transition at x/c =  0.3112   37

   5   rms: 0.2328E+00   max: -.8085E+00   D at   66  2   RLX: 0.618
       a = 12.000      CL =  0.6893
      Cm = -0.1142     CD =  0.14529   =>   CDf =  0.00256    CDp =  0.14273

 Side 1  free  transition at x/c =  0.0412   34
 Side 2  free  transition at x/c =  0.3189   36

   6   rms: 0.9877E+00   max: 0.7099E+01   T at   34  1   RLX: 0.211
       a = 12.000      CL =  0.7846
      Cm = -0.0972     CD =  0.08742   =>   CDf =  0.00559    CDp =  0.08183

 Side 1  free  transition at x/c =  0.0349   33
 Side 2  free  transition at x/c =  0.3298   36

   7   rms: 0.9101E+00   max: 0.7216E+01   T at   34  1   RLX: 0.177
       a = 12.000      CL =  0.9204
      Cm = -0.1039     CD =  0.09269   =>   CDf =  0.00427    CDp =  0.08842

 Side 1  free  transition at x/c =  0.0341   34
 Side 2  free  transition at x/c =  0.3357   35

   8   rms: 0.3733E+01   max: 0.1584E+02   D at   49  1   RLX: 0.095
       a = 12.000      CL =  1.0768
      Cm = -0.1073     CD =  0.08627   =>   CDf =  0.00556    CDp =  0.08071

 MRCHDU: Convergence failed at  76  side 1    Res =  0.1235E+01
 MRCHDU: Convergence failed at  77  side 1    Res =  0.7122E+00
 MRCHDU: Convergence failed at  78  side 1    Res =  0.8892E+00
 MRCHDU: Convergence failed at  79  side 1    Res =  0.1213E+01
 MRCHDU: Convergence failed at  80  side 1    Res =  0.1283E+01
 MRCHDU: Convergence failed at  81  side 1    Res =  0.1498E+01
 MRCHDU: Convergence failed at  82  side 1    Res =  0.1749E+01
 MRCHDU: Convergence failed at  83  side 1    Res =  0.2222E+01
 MRCHDU: Convergence failed at  84  side 1    Res =  0.3397E+01
 MRCHDU: Convergence failed at  85  side 1    Res =  0.7274E+01
 MRCHDU: Convergence failed at  86  side 1    Res =  0.4280E+02
 MRCHDU: Convergence failed at  87  side 1    Res =  0.4819E+01
 MRCHDU: Convergence failed at  88  side 1    Res =  0.1549E+01
 MRCHDU: Convergence failed at  89  side 1    Res =  0.1124E+01
 MRCHDU: Convergence failed at  90  side 1    Res =  0.1382E+01
 MRCHDU: Convergence failed at  91  side 1    Res =  0.2457E+01
 MRCHDU: Convergence failed at  92  side 1    Res =  0.3526E+01
 MRCHDU: Convergence failed at  92  side 2    Res =  0.1891E+01
 Side 1  free  transition at x/c =  0.0269   32
 Side 2  free  transition at x/c =  0.3417   35

   9   rms: 0.1106E+01   max: -.1010E+02   T at   33  1   RLX: 0.050
       a = 12.000      CL =  1.3321
      Cm = -0.2383     CD =  0.04610   =>   CDf =  0.00484    CDp =  0.04126

 Side 1  free  transition at x/c =  0.0259   32
 Side 2  free  transition at x/c =  0.3433   35

  10   rms: 0.7575E+00   max: 0.4548E+01   T at   32  1   RLX: 0.286
       a = 12.000      CL =  1.4885
      Cm = -0.2260     CD =  0.06362   =>   CDf =  0.00444    CDp =  0.05919

 Side 1  free  transition at x/c =  0.0231   32
 Side 2  free  transition at x/c =  0.3557   35

  11   rms: 0.4768E+00   max: 0.1798E+01   D at   77  2   RLX: 0.728
       a = 12.000      CL =  1.2656
      Cm = -0.1769     CD =  0.13692   =>   CDf =  0.00343    CDp =  0.13349

 Side 1  free  transition at x/c =  0.0233   31
 Side 2  free  transition at x/c =  0.3443   35

  12   rms: 0.3656E+00   max: 0.1386E+01   T at   35  2   RLX: 0.396
       a = 12.000      CL =  1.0658
      Cm = -0.1688     CD =  0.13701   =>   CDf =  0.00330    CDp =  0.13371

 Side 1  free  transition at x/c =  0.0234   30
 Side 2  free  transition at x/c =  0.3325   36

  13   rms: 0.1608E+00   max: 0.5770E+00   D at   82  1   RLX: 0.882
       a = 12.000      CL =  0.9020
      Cm = -0.1215     CD =  0.12979   =>   CDf =  0.00318    CDp =  0.12661

 MRCHDU: Convergence failed at  45  side 1    Res =  0.1539E+02
 MRCHDU: Convergence failed at  46  side 1    Res =  0.2174E+02
 MRCHDU: Convergence failed at  47  side 1    Res =  0.5179E+02
 MRCHDU: Convergence failed at  48  side 1    Res =  0.5796E+03
 MRCHDU: Convergence failed at  49  side 1    Res =  0.1746E+03
 MRCHDU: Convergence failed at  50  side 1    Res =  0.1058E+03
 TRCHEK2: N2 convergence failed.
 x:  0.27931  0.28667  0.29932  N:  8.928  9.000  9.097  Nx:  12.409   dN:-0.109E+03
 TRCHEK2: N2 convergence failed.
 x:  0.27931  0.28781  0.29932  N:  8.928  9.000  9.078  Nx:  10.847   dN:-0.519E+00
 TRCHEK2: N2 convergence failed.
 x:  0.27931  0.28963  0.29932  N:  8.928  9.000  9.081  Nx:   9.097   dN: 0.290E+00
 TRCHEK2: N2 convergence failed.
 x:  0.27931  0.28950  0.29932  N:  8.928  9.000  9.056  Nx:   9.218   dN:-0.342E+00
 TRCHEK2: N2 convergence failed.
 x:  0.27931  0.28960  0.29932  N:  8.928  9.000  9.082  Nx:   9.150   dN: 0.759E+00
 TRCHEK2: N2 convergence failed.
 x:  0.27931  0.28948  0.29932  N:  8.928  9.000  9.056  Nx:   9.273   dN:-0.205E+00
 TRCHEK2: N2 convergence failed.
 x:  0.27931  0.28956  0.29932  N:  8.928  9.000  9.055  Nx:   9.213   dN:-0.134E+01
 TRCHEK2: N2 convergence failed.
 x:  0.27931  0.28948  0.29932  N:  8.928  9.000  9.056  Nx:   9.383   dN:-0.141E+00
 TRCHEK2: N2 convergence failed.
 x:  0.27931  0.28952  0.29932  N:  8.928  9.000  9.055  Nx:   9.347   dN:-0.309E+00
 TRCHEK2: N2 convergence failed.
 x:  0.27931  0.28961  0.29932  N:  8.928  9.000  9.082  Nx:   9.290   dN: 0.119E+01
 TRCHEK2: N2 convergence failed.
 x:  0.27931  0.28947  0.29932  N:  8.928  9.000  9.056  Nx:   9.392   dN:-0.199E+00
 TRCHEK2: N2 convergence failed.
 x:  0.27931  0.28956  0.29932  N:  8.928  9.000  9.055  Nx:   9.320   dN:-0.136E+01
 TRCHEK2: N2 convergence failed.
 x:  0.27931  0.28950  0.29932  N:  8.928  9.000  9.056  Nx:   9.352   dN:-0.175E+00
 TRCHEK2: N2 convergence failed.
 x:  0.27931  0.28954  0.29932  N:  8.928  9.000  9.055  Nx:   9.317   dN:-0.537E+00
 TRCHEK2: N2 convergence failed.
 x:  0.27931  0.28948  0.29932  N:  8.928  9.000  9.056  Nx:   9.381   dN:-0.142E+00
 TRCHEK2: N2 convergence failed.
 x:  0.27931  0.28952  0.29932  N:  8.928  9.000  9.055  Nx:   9.345   dN:-0.312E+00
 TRCHEK2: N2 convergence failed.
 x:  0.27931  0.28961  0.29932  N:  8.928  9.000  9.082  Nx:   9.289   dN: 0.115E+01
 TRCHEK2: N2 convergence failed.
 x:  0.27931  0.28947  0.29932  N:  8.928  9.000  9.056  Nx:   9.391   dN:-0.200E+00
 TRCHEK2: N2 convergence failed.
 x:  0.27931  0.28956  0.29932  N:  8.928  9.000  9.055  Nx:   9.319   dN:-0.140E+01
 TRCHEK2: N2 convergence failed.
 x:  0.27931  0.28950  0.29932  N:  8.928  9.000  9.056  Nx:   9.351   dN:-0.176E+00
 TRCHEK2: N2 convergence failed.
 x:  0.27931  0.28954  0.29932  N:  8.928  9.000  9.055  Nx:   9.316   dN:-0.543E+00
 TRCHEK2: N2 convergence failed.
 x:  0.27931  0.28948  0.29932  N:  8.928  9.000  9.056  Nx:   9.379   dN:-0.142E+00
 MRCHDU: Convergence failed at  51  side 1    Res =  0.2647E+02
 MRCHDU: Convergence failed at  52  side 1    Res =  0.1308E+04
 MRCHDU: Convergence failed at  53  side 1    Res =  0.1065E+03
 MRCHDU: Convergence failed at  54  side 1    Res =  0.5775E+02
 MRCHDU: Convergence failed at  55  side 1    Res =  0.6174E+03
 MRCHDU: Convergence failed at  56  side 1    Res =  0.1474E+03
 MRCHDU: Convergence failed at  57  side 1    Res =  0.7599E+03
 MRCHDU: Convergence failed at  58  side 1    Res =  0.5180E+03
 MRCHDU: Convergence failed at  59  side 1    Res =  0.4446E+03
 MRCHDU: Convergence failed at  60  side 1    Res =  0.4396E+03
 MRCHDU: Convergence failed at  61  side 1    Res =  0.4884E+03
 MRCHDU: Convergence failed at  62  side 1    Res =  0.6014E+03
 MRCHDU: Convergence failed at  63  side 1    Res =  0.9236E+03
 MRCHDU: Convergence failed at  64  side 1    Res =  0.4272E+04
 MRCHDU: Convergence failed at  65  side 1    Res =  0.6292E+03
 MRCHDU: Convergence failed at  66  side 1    Res =  0.4154E+03
 MRCHDU: Convergence failed at  67  side 1    Res =  0.1797E+03
 MRCHDU: Convergence failed at  68  side 1    Res =  0.1677E+03
 MRCHDU: Convergence failed at  69  side 1    Res =  0.1787E+03
 MRCHDU: Convergence failed at  70  side 1    Res =  0.1813E+03
 MRCHDU: Convergence failed at  71  side 1    Res =  0.2563E+03
 MRCHDU: Convergence failed at  72  side 1    Res =  0.2909E+03
 MRCHDU: Convergence failed at  73  side 1    Res =  0.9496E+03
 MRCHDU: Convergence failed at  74  side 1    Res =  0.4173E+04
 MRCHDU: Convergence failed at  75  side 1    Res =  0.4790E+03
 MRCHDU: Convergence failed at  76  side 1    Res =  0.1729E+03
 MRCHDU: Convergence failed at  77  side 1    Res =  0.1620E+03
 MRCHDU: Convergence failed at  78  side 1    Res =  0.1876E+03
 MRCHDU: Convergence failed at  79  side 1    Res =  0.1869E+03
 MRCHDU: Convergence failed at  80  side 1    Res =  0.2682E+03
 MRCHDU: Convergence failed at  81  side 1    Res =  0.3072E+03
 MRCHDU: Convergence failed at  82  side 1    Res =  0.1737E+04
 MRCHDU: Convergence failed at  83  side 1    Res =  0.5376E+03
 MRCHDU: Convergence failed at  84  side 1    Res =  0.4686E+03
 MRCHDU: Convergence failed at  85  side 1    Res =  0.4803E+03
 MRCHDU: Convergence failed at  86  side 1    Res =  0.3523E+03
 MRCHDU: Convergence failed at  87  side 1    Res =  0.1698E+03
 MRCHDU: Convergence failed at  88  side 1    Res =  0.1683E+03
 MRCHDU: Convergence failed at  89  side 1    Res =  0.1645E+03
 MRCHDU: Convergence failed at  90  side 1    Res =  0.1521E+03
 MRCHDU: Convergence failed at  91  side 1    Res =  0.1478E+03
 MRCHDU: Convergence failed at  83  side 2    Res =  0.2183E+01
 MRCHDU: Convergence failed at  84  side 2    Res =  0.4947E+02
 MRCHDU: Convergence failed at  85  side 2    Res =  0.5291E+01
 MRCHDU: Convergence failed at  86  side 2    Res =  0.7555E+01
 MRCHDU: Convergence failed at  87  side 2    Res =  0.1192E+02
 MRCHDU: Convergence failed at  88  side 2    Res =  0.9787E+00
 MRCHDU: Convergence failed at  89  side 2    Res =  0.1011E+01
 Side 1  free  transition at x/c =  0.2082   51
 Side 2  free  transition at x/c =  0.3311   36

  14   rms: 0.7023E+01   max: 0.1236E+03   T at   51  1   RLX: 0.007
       a = 12.000      CL =  2.9243
      Cm = -0.7670     CD =  0.01198   =>   CDf =  0.00247    CDp =  0.00952

 Side 1  free  transition at x/c =  0.2085   51
 Side 2  free  transition at x/c =  0.3308   36

  15   rms: 0.9692E+01   max: 0.1082E+03   T at   51  1   RLX: 0.014
       a = 12.000      CL =  2.4987
      Cm = -0.5468     CD =  0.11646   =>   CDf =  0.00289    CDp =  0.11356

 Side 1  free  transition at x/c =  0.1346   47
 Side 2  free  transition at x/c =  0.3375   35

  16   rms: 0.2099E+02   max: -.2588E+03   T at   48  1   RLX: 0.002
       a = 12.000      CL =  2.7672
      Cm = -0.6642     CD =  0.13833   =>   CDf =  0.00300    CDp =  0.13533

 Side 1  free  transition at x/c =  0.1299   47
 Side 2  free  transition at x/c =  0.3363   35

  17   rms: 0.1351E+02   max: 0.2643E+03   T at   47  1   RLX: 0.006
       a = 12.000      CL =  2.7773
      Cm = -0.6538     CD =  0.13211   =>   CDf =  0.00301    CDp =  0.12910

 Side 1  free  transition at x/c =  0.1160   46
 Side 2  free  transition at x/c =  0.3395   35

  18   rms: 0.5945E+01   max: -.9051E+02   T at   46  1   RLX: 0.006
       a = 12.000      CL =  2.8802
      Cm = -0.6946     CD =  0.14353   =>   CDf =  0.00302    CDp =  0.14051

 Side 1  free  transition at x/c =  0.0820   42
 Side 2  free  transition at x/c =  0.3385   35

  19   rms: 0.4154E+01   max: 0.5007E+02   T at   43  1   RLX: 0.030
       a = 12.000      CL =  2.8490
      Cm = -0.6814     CD =  0.14497   =>   CDf =  0.00310    CDp =  0.14186

 Side 1  free  transition at x/c =  0.0784   42
 Side 2  free  transition at x/c =  0.3441   35

  20   rms: 0.1314E+01   max: 0.1725E+02   T at   42  1   RLX: 0.087
       a = 12.000      CL =  2.9023
      Cm = -0.6830     CD =  0.15173   =>   CDf =  0.00316    CDp =  0.14857

 MRCHDU: Convergence failed at  36  side 2    Res =  0.3149E+01
 MRCHDU: Convergence failed at  37  side 2    Res =  0.1303E+02
 MRCHDU: Convergence failed at  38  side 2    Res =  0.2012E+02
 MRCHDU: Convergence failed at  39  side 2    Res =  0.1255E+02
 MRCHDU: Convergence failed at  40  side 2    Res =  0.1077E+02
 MRCHDU: Convergence failed at  41  side 2    Res =  0.1146E+02
 MRCHDU: Convergence failed at  42  side 2    Res =  0.1293E+02
 MRCHDU: Convergence failed at  43  side 2    Res =  0.1578E+02
 MRCHDU: Convergence failed at  44  side 2    Res =  0.1971E+02
 MRCHDU: Convergence failed at  45  side 2    Res =  0.2528E+02
 MRCHDU: Convergence failed at  46  side 2    Res =  0.3235E+02
 MRCHDU: Convergence failed at  47  side 2    Res =  0.4490E+02
 MRCHDU: Convergence failed at  48  side 2    Res =  0.5134E+02
 MRCHDU: Convergence failed at  49  side 2    Res =  0.5652E+02
 MRCHDU: Convergence failed at  50  side 2    Res =  0.5463E+02
 MRCHDU: Convergence failed at  51  side 2    Res =  0.4990E+02
 MRCHDU: Convergence failed at  52  side 2    Res =  0.4411E+02
 MRCHDU: Convergence failed at  53  side 2    Res =  0.3919E+02
 MRCHDU: Convergence failed at  54  side 2    Res =  0.3458E+02
 MRCHDU: Convergence failed at  55  side 2    Res =  0.3001E+02
 MRCHDU: Convergence failed at  56  side 2    Res =  0.2548E+02
 MRCHDU: Convergence failed at  57  side 2    Res =  0.2188E+02
 MRCHDU: Convergence failed at  58  side 2    Res =  0.1843E+02
 MRCHDU: Convergence failed at  59  side 2    Res =  0.1588E+02
 MRCHDU: Convergence failed at  60  side 2    Res =  0.1360E+02
 MRCHDU: Convergence failed at  61  side 2    Res =  0.1250E+02
 MRCHDU: Convergence failed at  62  side 2    Res =  0.Got result {'DD': 0.02048, 'Dmin': 0.02784, 'LL': -0.5415}
Completed successfully in 3.24 seconds. [{'DD': 0.02048, 'Dmin': 0.02784, 'LL': -0.5415}]
1239E+02
 MRCHDU: Convergence failed at  63  side 2    Res =  0.1391E+02
 MRCHDU: Convergence failed at  64  side 2    Res =  0.6081E+02
 MRCHDU: Convergence failed at  65  side 2    Res =  0.7475E+01
 Side 1  free  transition at x/c =  0.0421   36
 Side 2  free  transition at x/c =  0.3524   36

  21   rms: 0.1086E+01   max: 0.9998E+01   T at   36  1   RLX: 0.102
       a = 12.000      CL =  2.7023
      Cm = -0.6215     CD =  0.18271   =>   CDf =  0.00153    CDp =  0.18119

 Side 1  free  transition at x/c =  0.0375   35
 Side 2  free  transition at x/c =  0.3530   36

  22   rms: 0.1005E+01   max: -.4149E+01   D at   92  2   RLX: 0.121
       a = 12.000      CL =  2.5687
      Cm = -0.5948     CD =  0.18202   =>   CDf =  0.00442    CDp =  0.17760

 Side 1  free  transition at x/c =  0.0357   35
 Side 2  free  transition at x/c =  0.3493   36

  23   rms: 0.9283E+00   max: -.4153E+01   C at   48  2   RLX: 0.120
       a = 12.000      CL =  2.3861
      Cm = -0.5528     CD =  0.21005   =>   CDf =  0.00448    CDp =  0.20557

 Side 1  free  transition at x/c =  0.0354   35
 Side 2  free  transition at x/c =  0.3458   36

  24   rms: 0.8096E+00   max: -.4122E+01   D at   92  2   RLX: 0.121
       a = 12.000      CL =  2.2219
      Cm = -0.5137     CD =  0.21673   =>   CDf =  0.00470    CDp =  0.21204

 Side 1  free  transition at x/c =  0.0352   34
 Side 2  free  transition at x/c =  0.3443   36

  25   rms: 0.1087E+01   max: 0.5576E+01   T at   52  2   RLX: 0.091
       a = 12.000      CL =  2.1124
      Cm = -0.4871     CD =  0.25278   =>   CDf =  0.00452    CDp =  0.24825
 VISCAL:  Convergence failed

 Sequence halted since previous  4 points did not converge
 Last-converged  alpha =   8.000    CL =   1.17288

.OPERva   c>  
 XFOIL   c>  
