Job launching after 0.28 seconds in submission.
Running python job.
Changed into dir /home/simonx/Documents/Udacity/Projects/capstone/PESM_NSGA2_CST_XFoil
Importing evaluationFunctionXFoil.py
Running evaluationFunctionXFoil.main()
0
1
2
0.04
resp: 
 ===================================================
  XFOIL Version 6.97
  Copyright (C) 2000   Mark Drela, Harold Youngren

  This software comes with ABSOLUTELY NO WARRANTY,
    subject to the GNU General Public License.

  Caveat computor
 ===================================================

 File  xfoil.def  not found

   QUIT    Exit program

  .OPER    Direct operating point(s)
  .MDES    Complex mapping design routine
  .QDES    Surface speed design routine
  .GDES    Geometry design routine

   SAVE f  Write airfoil to labeled coordinate file
   PSAV f  Write airfoil to plain coordinate file
   ISAV f  Write airfoil to ISES coordinate file
   MSAV f  Write airfoil to MSES coordinate file
   REVE    Reverse written-airfoil node ordering
   DELI i  Change written-airfoil file delimiters

   LOAD f  Read buffer airfoil from coordinate file
   NACA i  Set NACA 4,5-digit airfoil and buffer airfoil
   INTE    Set buffer airfoil by interpolating two airfoils
   NORM    Buffer airfoil normalization toggle
   HALF    Halve the number of points in buffer airfoil
   XYCM rr Change CM reference location, currently  0.25000 0.00000

   BEND    Display structural properties of current airfoil

   PCOP    Set current-airfoil panel nodes directly from buffer airfoil points
   PANE    Set current-airfoil panel nodes ( 160 ) based on curvature
  .PPAR    Show/change paneling

  .PLOP    Plotting options

   WDEF f  Write  current-settings file
   RDEF f  Reread current-settings file
   NAME s  Specify new airfoil name
   NINC    Increment name version number

   Z       Zoom    | (available in all menus)
   U       Unzoom  | 

 XFOIL   c>   ...............................................

  G raphics-enable flag:        T
  S ize of plot object          10.00"
  A spect ratio of plot object   0.5500
  P age dimensions              11.00 x  8.50"
  M argins from page edges       0.00",  0.00"
  F ont size (relative)          0.0150
  W indow/screen size fraction   0.8000
  B lowup input method:        Cursor    
  O rientation of plot:        Landscape 
  C olor PostScript output?     F

      Option, Value   (or <Return>)    c>   ...............................................

  G raphics-enable flag:        F
  S ize of plot object          10.00"
  A spect ratio of plot object   0.5500
  P age dimensions              11.00 x  8.50"
  M argins from page edges       0.00",  0.00"
  F ont size (relative)          0.0150
  W indow/screen size fraction   0.8000
  B lowup input method:        Cursor    
  O rientation of plot:        Landscape 
  C olor PostScript output?     F

      Option, Value   (or <Return>)    c>  
 XFOIL   c>  
 Labeled airfoil file.  Name:  000217                                          

 Number of input coordinate points: 200
 Clockwise ordering
 Max thickness =     0.139473  at x =   0.287
 Max camber    =     0.089365  at x =   0.516

  LE  x,y  =  -0.00000   0.00007  |   Chord =   0.99988
  TE  x,y  =   0.99988   0.00006  |

 Current airfoil nodes set from buffer airfoil nodes ( 200 )

 XFOIL   c>  
 You are working with the buffer airfoil

.GDES   c>  
  i       x        y      angle
   2   0.9990   0.0005    0.014
   3   0.9978   0.0011    0.086
   4   0.9961   0.0019    0.017
   5   0.9938   0.0030    0.063
   6   0.9911   0.0043    0.080
   7   0.9880   0.0059    0.086
   8   0.9843   0.0076    0.105
   9   0.9801   0.0096    0.120
  10   0.9755   0.0118    0.131
  11   0.9704   0.0143    0.148
  12   0.9649   0.0169    0.162
  13   0.9589   0.0197    0.174
  14   0.9524   0.0227    0.193
  15   0.9455   0.0259    0.215
  16   0.9382   0.0292    0.221
  17   0.9304   0.0328    0.250
  18   0.9222   0.0364    0.268
  19   0.9135   0.0402    0.276
  20   0.9045   0.0442    0.303
  21   0.8951   0.0482    0.325
  22   0.8853   0.0524    0.346
  23   0.8751   0.0566    0.366
  24   0.8645   0.0609    0.389
  25   0.8536   0.0653    0.405
  26   0.8423   0.0697    0.441
  27   0.8307   0.0741    0.456
  28   0.8187   0.0786    0.483
  29   0.8065   0.0831    0.506
  30   0.7939   0.0875    0.535
  31   0.7810   0.0919    0.562
  32   0.7679   0.0963    0.582
  33   0.7545   0.1006    0.615
  34   0.7409   0.1048    0.637
  35   0.7270   0.1090    0.668
  36   0.7129   0.1130    0.691
  37   0.6986   0.1169    0.720
  38   0.6841   0.1206    0.744
  39   0.6694   0.1242    0.774
  40   0.6545   0.1276    0.792
  41   0.6395   0.1309    0.826
  42   0.6243   0.1339    0.844
  43   0.6091   0.1367    0.870
  44   0.5937   0.1394    0.890
  45   0.5782   0.1417    0.908
  46   0.5627   0.1439    0.934
  47   0.5471   0.1458    0.949
  48   0.5314   0.1474    0.963
  49   0.5157   0.1488    0.980
  50   0.5000   0.1499    0.989
  51   0.4843   0.1507    1.003
  52   0.4686   0.1513    1.009
  53   0.4529   0.1515    1.017
  54   0.4373   0.1515    1.017
  55   0.4218   0.1513    1.023
  56   0.4063   0.1507    1.020
  57   0.3909   0.1499    1.016
  58   0.3757   0.1488    1.013
  59   0.3605   0.1474    1.007
  60   0.3455   0.1458    0.997
  61   0.3306   0.1440    0.988
  62   0.3159   0.1419    0.976
  63   0.3014   0.1396    0.962
  64   0.2871   0.1371    0.948
  65   0.2730   0.1343    0.937
  66   0.2591   0.1314    0.918
  67   0.2455   0.1283    0.909
  68   0.2321   0.1250    0.883
  69   0.2190   0.1216    0.879
  70   0.2061   0.1180    0.862
  71   0.1935   0.1143    0.852
  72   0.1813   0.1105    0.838
  73   0.1693   0.1067    0.835
  74   0.1577   0.1027    0.837
  75   0.1464   0.0986    0.826
  76   0.1355   0.0945    0.839
  77   0.1249   0.0904    0.849
  78   0.1147   0.0862    0.861
  79   0.1049   0.0820    0.892
  80   0.0955   0.0778    0.926
  81   0.0865   0.0737    0.968
  82   0.0778   0.0695    1.032
  83   0.0696   0.0653    1.100
  84   0.0618   0.0612    1.188
  85   0.0545   0.0571    1.312
  86   0.0476   0.0530    1.458
  87   0.0411   0.0489    1.604
  88   0.0351   0.0450    1.841
  89   0.0296   0.0410    2.068
  90   0.0245   0.0371    2.393
  91   0.0199   0.0333    2.764
  92   0.0157   0.0294    3.213
  93   0.0120   0.0257    3.711
  94   0.0089   0.0219    4.367
  95   0.0062   0.0182    5.033
  96   0.0039   0.0145    5.776
  97   0.0022   0.0109    6.540
  98   0.0010   0.0072    7.177
  99   0.0002   0.0036    7.635
 100   0.0000   0.0000    8.085
 101   0.0002  -0.0034    8.277
 102   0.0010  -0.0067    8.062
 103   0.0022  -0.0100    7.766
 104   0.0039  -0.0132    7.335
 105   0.0062  -0.0163    6.858
 106   0.0089  -0.0193    6.397
 107   0.0120  -0.0220    5.855
 108   0.0157  -0.0246    5.367
 109   0.0199  -0.0270    4.894
 110   0.0245  -0.0292    4.436
 111   0.0296  -0.0311    3.996
 112   0.0351  -0.0327    3.623
 113   0.0411  -0.0341    3.246
 114   0.0476  -0.0352    2.920
 115   0.0545  -0.0361    2.612
 116   0.0618  -0.0366    2.317
 117   0.0696  -0.0368    2.079
 118   0.0778  -0.0368    1.829
 119   0.0865  -0.0365    1.610
 120   0.0955  -0.0359    1.417
 121   0.1049  -0.0351    1.232
 122   0.1147  -0.0340    1.063
 123   0.1249  -0.0327    0.904
 124   0.1355  -0.0311    0.767
 125   0.1464  -0.0294    0.636
 126   0.1577  -0.0275    0.508
 127   0.1693  -0.0254    0.406
 128   0.1813  -0.0232    0.304
 129   0.1935  -0.0208    0.205
 130   0.2061  -0.0183    0.129
 131   0.2190  -0.0158    0.045
 132   0.2321  -0.0132   -0.022
 133   0.2455  -0.0105   -0.081
 134   0.2591  -0.0078   -0.139
 135   0.2730  -0.0051   -0.190
 136   0.2871  -0.0024   -0.230
 137   0.3014   0.0003   -0.274
 138   0.3159   0.0029   -0.298
 139   0.3306   0.0055   -0.328
 140   0.3455   0.0081   -0.348
 141   0.3605   0.0105   -0.376
 142   0.3757   0.0129   -0.378
 143   0.3909   0.0152   -0.395
 144   0.4063   0.0175   -0.405
 145   0.4218   0.0196   -0.407
 146   0.4373   0.0216   -0.409
 147   0.4529   0.0235   -0.410
 148   0.4686   0.0253   -0.413
 149   0.4843   0.0270   -0.406
 150   0.5000   0.0286   -0.408
 151   0.5157   0.0301   -0.404
 152   0.5314   0.0314   -0.404
 153   0.5471   0.0327   -0.399
 154   0.5627   0.0338   -0.405
 155   0.5782   0.0348   -0.398
 156   0.5937   0.0357   -0.407
 157   0.6091   0.0365   -0.402
 158   0.6243   0.0372   -0.414
 159   0.6395   0.0378   -0.419
 160   0.6545   0.0382   -0.422
 161   0.6694   0.0385   -0.441
 162   0.6841   0.0388   -0.444
 163   0.6986   0.0389   -0.463
 164   0.7129   0.0388   -0.476
 165   0.7270   0.0387   -0.492
 166   0.7409   0.0385   -0.505
 167   0.7545   0.0381   -0.529
 168   0.7679   0.0376   -0.542
 169   0.7810   0.0370   -0.568
 170   0.7939   0.0363   -0.573
 171   0.8065   0.0355   -0.604
 172   0.8187   0.0345   -0.614
 173   0.8307   0.0335   -0.633
 174   0.8423   0.0324   -0.645
 175   0.8536   0.0311   -0.657
 176   0.8645   0.0298   -0.669
 177   0.8751   0.0284   -0.674
 178   0.8853   0.0269   -0.679
 179   0.8951   0.0254   -0.683
 180   0.9045   0.0238   -0.673
 181   0.9135   0.0221   -0.681
 182   0.9222   0.0205   -0.663
 183   0.9304   0.0188   -0.651
 184   0.9382   0.0171   -0.646
 185   0.9455   0.0154   -0.603
 186   0.9524   0.0137   -0.608
 187   0.9589   0.0121   -0.562
 188   0.9649   0.0105   -0.534
 189   0.9704   0.0090   -0.506
 190   0.9755   0.0076   -0.472
 191   0.9801   0.0062   -0.430
 192   0.9843   0.0050   -0.389
 193   0.9880   0.0039   -0.329
 194   0.9911   0.0029   -0.327
 195   0.9938   0.0020   -0.218
 196   0.9961   0.0013   -0.240
 197   0.9978   0.0007   -0.136
 198   0.9990   0.0003   -0.108
 199   0.9998   0.0001    0.023

 Maximum panel corner angle =  8.277   at  i,x,y  = 101   0.0002  -0.0034

 Enter corner angle criterion for refinement (deg):   4.138
 Enter type of spline parameter (1=uniform, 2=arclength):   1
 Enter refinement x limits:  -0.10000   1.10000
 Number of points added:           34
 Max thickness =     0.139471  at x =   0.287
 Max camber    =     0.089397  at x =   0.516

 Maximum panel corner angle =  3.623   at  i,x,y  = 146   0.0351  -0.0327

.GDES   c>  
 Buffer airfoil is not identical to current airfoil

 XFOIL   c>  
 Blunt trailing edge.  Gap =  0.00028

 Paneling parameters used...
   Number of panel nodes       160
   Panel bunching parameter    1.000
   TE/LE panel density ratio   0.150
   Refined-area/LE panel density ratio    0.200
   Top    side refined area x/c limits  1.000 1.000
   Bottom side refined area x/c limits  1.000 1.000

 XFOIL   c>  
Enter output filename   s>  
 XFOIL   c>  
.OPERi   c>   Current iteration limit:          20

Enter new iteration limit   i>  
Enter new iteration limit   i>  
Enter new iteration limit   i>  
.OPERi   c>  
 M  =    0.0000
 Re =  0.3000E+06

.OPERv   c>  
 Sonic Cp =   -420.65      Sonic Q/Qinf =    22.825


.OPERv   c>  
 Polar  1 newly created for accumulation
 Airfoil archived with polar: 000217                                          

Enter  polar save filename  OR  <return> for no file   s>  
 New polar save file available

Enter  polar dump filename  OR  <return> for no file   s>  
 Polar dump file will NOT be written

 Polar accumulation enabled

.OPERva   c>   Calculating unit vorticity distributions ...
 Calculating wake trajectory ...
 Calculating source influence matrix ...

 Solving BL system ...

 Initializing BL ...
    side            1  ...
 MRCHUE: Inverse mode at  61     Hk =   3.927
 MRCHUE: Inverse mode at  62     Hk =   4.595
 MRCHUE: Inverse mode at  63     Hk =   5.250
 MRCHUE: Inverse mode at  64     Hk =   5.893
 MRCHUE: Inverse mode at  65     Hk =   6.529
 MRCHUE: Inverse mode at  66     Hk =   7.159
 MRCHUE: Inverse mode at  67     Hk =   7.785
 MRCHUE: Inverse mode at  68     Hk =   8.408
 MRCHUE: Inverse mode at  69     Hk =   9.028
 MRCHUE: Inverse mode at  70     Hk =   8.765
 MRCHUE: Inverse mode at  71     Hk =   6.083
 MRCHUE: Inverse mode at  72     Hk =   4.531
 MRCHUE: Inverse mode at  73     Hk =   3.425
 MRCHUE: Inverse mode at  87     Hk =   2.500
 MRCHUE: Convergence failed at  88  side 1    Res =  0.4963E+01
    side            2  ...
 MRCHUE: Inverse mode at  27     Hk =   4.229
 MRCHUE: Inverse mode at  28     Hk =   5.162
 MRCHUE: Inverse mode at  29     Hk =   6.079
 MRCHUE: Inverse mode at  30     Hk =   6.979
 MRCHUE: Inverse mode at  31     Hk =   7.859
 MRCHUE: Inverse mode at  32     Hk =   8.710
 MRCHUE: Inverse mode at  33     Hk =   9.533
 MRCHUE: Inverse mode at  34     Hk =   6.669
 MRCHUE: Inverse mode at  35     Hk =   4.405
 MRCHUE: Inverse mode at  36     Hk =   2.990

 MRCHDU: Convergence failed at  88  side 1    Res =  0.4266E+01
 Side 1  free  transition at x/c =  0.7121   70
 Side 2  free  transition at x/c =  0.2850   34

   1   rms: 0.2327E+00   max: -.1027E+01   D at   74  2   RLX: 0.487
       a =  2.000      CL =  1.4525
      Cm = -0.3103     CD =  0.01310   =>   CDf =  0.00702    CDp =  0.00608

 Side 1  free  transition at x/c =  0.7152   69
 Side 2  free  transition at x/c =  0.2872   35

   2   rms: 0.1063E+00   max: -.5377E+00   D at   37  2   RLX: 0.930
       a =  2.000      CL =  1.3734
      Cm = -0.2914     CD =  0.01532   =>   CDf =  0.00697    CDp =  0.00836

 Side 1  free  transition at x/c =  0.7186   70
 Side 2  free  transition at x/c =  0.2890   35

   3   rms: 0.2271E-01   max: -.1951E+00   D at   37  2
       a =  2.000      CL =  1.3677
      Cm = -0.2902     CD =  0.01554   =>   CDf =  0.00686    CDp =  0.00868

 Side 1  free  transition at x/c =  0.7156   70
 Side 2  free  transition at x/c =  0.2856   35

   4   rms: 0.4727E-02   max: -.5836E-01   D at   72  1
       a =  2.000      CL =  1.3659
      Cm = -0.2899     CD =  0.01567   =>   CDf =  0.00694    CDp =  0.00873

 Side 1  free  transition at x/c =  0.7152   69
 Side 2  free  transition at x/c =  0.2851   35

   5   rms: 0.2157E-02   max: 0.1762E-01   D at   70  1
       a =  2.000      CL =  1.3642
      Cm = -0.2895     CD =  0.01569   =>   CDf =  0.00696    CDp =  0.00874

 Side 1  free  transition at x/c =  0.7150   69
 Side 2  free  transition at x/c =  0.2848   35

   6   rms: 0.4482E-04   max: 0.4397E-03   D at   70  1
       a =  2.000      CL =  1.3642
      Cm = -0.2895     CD =  0.01569   =>   CDf =  0.00695    CDp =  0.00874

 Point added to stored polar  1
 Point written to save file  000217M0.04.log                                 
 Dump file unspecified or not available
 Calculating wake trajectory ...
 Calculating source influence matrix ...

 Solving BL system ...

 Side 1  free  transition at x/c =  0.7150   69
 Side 2  free  transition at x/c =  0.2848   35

   1   rms: 0.1652E+00   max: -.1058E+01   T at   35  2   RLX: 0.472
       a =  3.000      CL =  1.4001
      Cm = -0.2869     CD =  0.01622   =>   CDf =  0.00696    CDp =  0.00926

 Side 1  free  transition at x/c =  0.7057   69
 Side 2  free  transition at x/c =  0.3002   36

   2   rms: 0.2829E+00   max: -.1868E+01   T at   36  2   RLX: 0.268
       a =  3.000      CL =  1.4218
      Cm = -0.2881     CD =  0.01625   =>   CDf =  0.00673    CDp =  0.00953

 Side 1  free  transition at x/c =  0.7045   70
 Side 2  free  transition at x/c =  0.3152   35

   3   rms: 0.8780E-01   max: -.6059E+00   T at   35  2   RLX: 0.825
       a =  3.000      CL =  1.4631
      Cm = -0.2892     CD =  0.01627   =>   CDf =  0.00681    CDp =  0.00946

 Side 1  free  transition at x/c =  0.7015   70
 Side 2  free  transition at x/c =  0.3373   36

   4   rms: 0.2090E-01   max: -.1837E+00   D at   36  2
       a =  3.000      CL =  1.4733
      Cm = -0.2897     CD =  0.01615   =>   CDf =  0.00675    CDp =  0.00939

 Side 1  free  transition at x/c =  0.7011   70
 Side 2  free  transition at x/c =  0.3424   37

   5   rms: 0.4818E-02   max: 0.9411E-01   D at   37  2
       a =  3.000      CL =  1.4737
      Cm = -0.2898     CD =  0.01612   =>   CDf =  0.00667    CDp =  0.00944

 Side 1  free  transition at x/c =  0.7011   70
 Side 2  free  transition at x/c =  0.3413   37

   6   rms: 0.5078E-03   max: 0.6112E-02   D at   37  2
       a =  3.000      CL =  1.4737
      Cm = -0.2898     CD =  0.01611   =>   CDf =  0.00667    CDp =  0.00944

 Side 1  free  transition at x/c =  0.7011   70
 Side 2  free  transition at x/c =  0.3412   37

   7   rms: 0.2319E-05   max: -.2584E-04   D at   38  2
       a =  3.000      CL =  1.4737
      Cm = -0.2898     CD =  0.01611   =>   CDf =  0.00667    CDp =  0.00944

 Point added to stored polar  1
 Point written to save file  000217M0.04.log                                 
 Dump file unspecified or not available
 Calculating wake trajectory ...
 Calculating source influence matrix ...

 Solving BL system ...

 Side 1  free  transition at x/c =  0.7011   70
 Side 2  free  transition at x/c =  0.3412   37

   1   rms: 0.2035E+00   max: -.1336E+01   T at   37  2   RLX: 0.374
       a =  4.000      CL =  1.5223
      Cm = -0.2914     CD =  0.01603   =>   CDf =  0.00650    CDp =  0.00953

 Side 1  free  transition at x/c =  0.6976   70
 Side 2  free  transition at x/c =  0.3674   37

   2   rms: 0.1074E+00   max: -.7682E+00   T at   37  2   RLX: 0.651
       a =  4.000      CL =  1.5462
      Cm = -0.2877     CD =  0.01694   =>   CDf =  0.00663    CDp =  0.01031

 Side 1  free  transition at x/c =  0.6887   70
 Side 2  free  transition at x/c =  0.3946   38

   3   rms: 0.5686E-01   max: -.5591E+00   T at   38  2   RLX: 0.894
       a =  4.000      CL =  1.5760
      Cm = -0.2892     CD =  0.01691   =>   CDf =  0.00647    CDp =  0.01044

 MRCHDU: Convergence failed at  41  side 2    Res =  0.6993E+01
 MRCHDU: Convergence failed at  42  side 2    Res =  0.1170E+02
 Side 1  free  transition at x/c =  0.6873   70
 Side 2  free  transition at x/c =  0.4425   41

   4   rms: 0.2465E-01   max: -.3243E+00   D at   42  2
       a =  4.000      CL =  1.5817
      Cm = -0.2899     CD =  0.01670   =>   CDf =  0.00616    CDp =  0.01054

 Side 1  free  transition at x/c =  0.6872   70
 Side 2  free  transition at x/c =  0.4485   41

   5   rms: 0.4650E-02   max: 0.8109E-01   C at   41  2
       a =  4.000      CL =  1.5818
      Cm = -0.2900     CD =  0.01669   =>   CDf =  0.00620    CDp =  0.01049

 Side 1  free  transition at x/c =  0.6872   70
 Side 2  free  transition at x/c =  0.4461   41

   6   rms: 0.6074E-04   max: -.1005E-02   D at   44  2
       a =  4.000      CL =  1.5818
      Cm = -0.2900     CD =  0.01669   =>   CDf =  0.00621    CDp =  0.01048

 Point added to stored polar  1
 Point written to save file  000217M0.04.log                                 
 Dump file unspecified or not available
 Calculating wake trajectory ...
 Calculating source influence matrix ...

 Solving BL system ...

 Side 1  free  transition at x/c =  0.6872   70
 Side 2  free  transition at x/c =  0.4461   41

   1   rms: 0.2291E+00   max: -.2692E+01   C at   41  2   RLX: 0.186
       a =  5.000      CL =  1.6040
      Cm = -0.2904     CD =  0.01670   =>   CDf =  0.00602    CDp =  0.01068

 Side 1  free  transition at x/c =  0.6848   71
 Side 2  free  transition at x/c =  0.4791   42

   2   rms: 0.2760E+00   max: -.4169E+01   C at   42  2   RLX: 0.120
       a =  5.000      CL =  1.6172
      Cm = -0.2909     CD =  0.01671   =>   CDf =  0.00615    CDp =  0.01056

 Side 1  free  transition at x/c =  0.6838   71
 Side 2  free  transition at x/c =  0.4938   43

   3   rms: 0.2464E+00   max: -.3199E+01   C at   43  2   RLX: 0.156
       a =  5.000      CL =  1.6334
      Cm = -0.2918     CD =  0.01671   =>   CDf =  0.00615    CDp =  0.01056

 Side 1  free  transition at x/c =  0.6827   71
 Side 2  free  transition at x/c =  0.5140   44

   4   rms: 0.2584E+00   max: -.3791E+01   C at   44  2   RLX: 0.132
       a =  5.000      CL =  1.6453
      Cm = -0.2925     CD =  0.01674   =>   CDf =  0.00611    CDp =  0.01062

 Side 1  free  transition at x/c =  0.6819   71
 Side 2  free  transition at x/c =  0.5287   45

   5   rms: 0.2511E+00   max: -.3207E+01   C at   45  2   RLX: 0.156
       a =  5.000      CL =  1.6576
      Cm = -0.2933     CD =  0.01675   =>   CDf =  0.00612    CDp =  0.01063

 Side 1  free  transition at x/c =  0.6811   71
 Side 2  free  transition at x/c =  0.5486   46

   6   rms: 0.2542E+00   max: -.3568E+01   C at   46  2   RLX: 0.140
       a =  5.000      CL =  1.6671
      Cm = -0.2940     CD =  0.01680   =>   CDf =  0.00608    CDp =  0.01072

 Side 1  free  transition at x/c =  0.6806   70
 Side 2  free  transition at x/c =  0.5659   47

   7   rms: 0.2176E+00   max: -.2997E+01   C at   47  2   RLX: 0.167
       a =  5.000      CL =  1.6712
      Cm = -0.2937     CD =  0.01686   =>   CDf =  0.00604    CDp =  0.01083

 Side 1  free  transition at x/c =  0.6794   70
 Side 2  free  transition at x/c =  0.5867   48

   8   rms: 0.2460E+00   max: -.3842E+01   C at   48  2   RLX: 0.130
       a =  5.000      CL =  1.6745
      Cm = -0.2936     CD =  0.01694   =>   CDf =  0.00593    CDp =  0.01101

 Side 1  free  transition at x/c =  0.6786   70
 Side 2  free  transition at x/c =  0.6027   48

   9   rms: 0.8682E-01   max: -.9086E+00   T at   48  2   RLX: 0.550
       a =  5.000      CL =  1.6829
      Cm = -0.2918     CD =  0.01722   =>   CDf =  0.00566    CDp =  0.01156

 Side 1  free  transition at x/c =  0.6754   71
 Side 2 forced transition at x/c =  1.0001   71

  10   rms: 0.6024E-01   max: 0.6012E+00   D at   47  2
       a =  5.000      CL =  1.6806
      Cm = -0.2879     CD =  0.01689   =>   CDf =  0.00524    CDp =  0.01165

 Side 1  free  transition at x/c =  0.6733   71
 Side 2 forced transition at x/c =  1.0001   71

  11   rms: 0.4779E-02   max: 0.4126E-01   D at   48  2
       a =  5.000      CL =  1.6807
      Cm = -0.2879     CD =  0.01687   =>   CDf =  0.00527    CDp =  0.01160

 Side 1  free  transition at x/c =  0.6735   71
 Side 2 forced transition at x/c =  1.0001   71

  12   rms: 0.1089E-03   max: 0.6917E-03   D at   44  2
       a =  5.000      CL =  1.6807
      Cm = -0.2879     CD =  0.01687   =>   CDf =  0.00526    CDp =  0.01161

 Side 1  free  transition at x/c =  0.6735   71
 Side 2 forced transition at x/c =  1.0001   71

  13   rms: 0.7436E-06   max: -.3830E-05   D at   87  1
       a =  5.000      CL =  1.6807
      Cm = -0.2879     CD =  0.01687   =>   CDf =  0.00526    CDp =  0.01161

 Point added to stored polar  1
 Point written to save file  000217M0.04.log                                 
 Dump file unspecified or not available
 Calculating wake trajectory ...
 Calculating source influence matrix ...

 Solving BL system ...

 Side 1  free  transition at x/c =  0.6735   71
 Side 2 forced transition at x/c =  1.0001   71

   1   rms: 0.1666E+00   max: -.4124E+00   n at   62  2
       a =  6.000      CL =  1.7818
      Cm = -0.2865     CD =  0.01784   =>   CDf =  0.00507    CDp =  0.01277

 Side 1  free  transition at x/c =  0.6423   70
 Side 2 forced transition at x/c =  1.0001   70

   2   rms: 0.1040E+00   max: -.6144E+00   D at   71  1   RLX: 0.814
       a =  6.000      CL =  1.8041
      Cm = -0.2896     CD =  0.01767   =>   CDf =  0.00523    CDp =  0.01244

 Side 1  free  transition at x/c =  0.6526   71
 Side 2 forced transition at x/c =  1.0001   70

   3   rms: 0.3005E-01   max: 0.1203E+00   D at   80  2
       a =  6.000      CL =  1.7844
      Cm = -0.2862     CD =  0.01700   =>   CDf =  0.00530    CDp =  0.01170

 Side 1  free  transition at x/c =  0.6510   71
 Side 2 forced transition at x/c =  1.0001   70

   4   rms: 0.1247E-02   max: -.5209E-02   D at   90  1
       a =  6.000      CL =  1.7832
      Cm = -0.2860     CD =  0.01708   =>   CDf =  0.00532    CDp =  0.01176

 Side 1  free  transition at x/c =  0.6508   71
 Side 2 forced transition at x/c =  1.0001   70

   5   rms: 0.1341E-04   max: -.8418E-04   D at   90  1
       a =  6.000      CL =  1.7831
      Cm = -0.2860     CD =  0.01708   =>   CDf =  0.00533    CDp =  0.01176

 Point added to stored polar  1
 Point written to save file  000217M0.04.log                                 
 Dump file unspecified or not available
 Calculating wake trajectory ...
 Calculating source influence matrix ...

 Solving BL system ...

 Side 1  free  transition at x/c =  0.6508   71
 Side 2 forced transition at x/c =  1.0001   70

   1   rms: 0.1736E+00   max: 0.6971E+00   T at   71  1   RLX: 0.829
       a =  7.000      CL =  1.8841
      Cm = -0.2871     CD =  0.01647   =>   CDf =  0.00512    CDp =  0.01135

 MRCHDU: Convergence failed at  72  side 1    Res =  0.4457E+02
 MRCHDU: Convergence failed at  73  side 1    Res =  0.1830E+01
 MRCHDU: Convergence failed at  74  side 1    Res =  0.1629E+01
 MRCHDU: Convergence failed at  75  side 1    Res =  0.1911E+01
 MRCHDU: Convergence failed at  76  side 1    Res =  0.2275E+01
 MRCHDU: Convergence failed at  77  side 1    Res =  0.3038E+01
 MRCHDU: Convergence failed at  78  side 1    Res =  0.3784E+01
 MRCHDU: Convergence failed at  79  side 1    Res =  0.4991E+01
 MRCHDU: Convergence failed at  80  side 1    Res =  0.6944E+01
 MRCHDU: Convergence failed at  81  side 1    Res =  0.1073E+02
 MRCHDU: Convergence failed at  82  side 1    Res =  0.2426E+02
 MRCHDU: Convergence failed at  83  side 1    Res =  0.1184E+03
 MRCHDU: Convergence failed at  84  side 1    Res =  0.1482E+02
 MRCHDU: Convergence failed at  85  side 1    Res =  0.2265E+02
 MRCHDU: Convergence failed at  86  side 1    Res =  0.2098E+02
 MRCHDU: Convergence failed at  87  side 1    Res =  0.2341E+02
 MRCHDU: Convergence failed at  88  side 1    Res =  0.4521E+02
 MRCHDU: Convergence failed at  89  side 1    Res =  0.1072E+02
 MRCHDU: Convergence failed at  90  side 1    Res =  0.1242E+02
 MRCHDU: Convergence failed at  91  side 1    Res =  0.1971E+03
 MRCHDU: Convergence failed at  92  side 1    Res =  0.3853E+02
 MRCHDU: Convergence failed at  93  side 1    Res =  0.1401E+03
 Side 1  free  transition at x/c =  0.6316   71
 Side 2 forced transition at x/c =  1.0001   69

   2   rms: 0.7731E+00   max: 0.3709E+01   D at   72  2   RLX: 0.262
       a =  7.000      CL =  2.1043
      Cm = -0.4265     CD =  0.00573   =>   CDf =  0.00414    CDp =  0.00159

 MRCHDU: Convergence failed at  72  side 2    Res =  0.6511E+01
 MRCHDU: Convergence failed at  73  side 2    Res =  0.1550E+01
 Side 1  free  transition at x/c =  0.6221   70
 Side 2 forced transition at x/c =  1.0001   69

   3   rms: 0.2371E+00   max: 0.5248E+00   T at   70  2   RLX: 0.870
       a =  7.000      CL =  1.9533
      Cm = -0.3055     CD =  0.01256   =>   CDf =  0.00612    CDp =  0.00643

 Side 1  free  transition at x/c =  0.6251   71
 Side 2 forced transition at x/c =  1.0001   68

   4   rms: 0.7140E-01   max: -.5365E+00   D at   87  1   RLX: 0.932
       a =  7.000      CL =  1.9326
      Cm = -0.2933     CD =  0.01555   =>   CDf =  0.00546    CDp =  0.01009

 MRCHDU: Convergence failed at  92  side 1    Res =  0.9683E+00
 MRCHDU: Convergence failed at  93  side 1    Res =  0.1628E+01
 MRCHDU: Convergence failed at  94  side 1    Res =  0.1925E+01
 Side 1  free  transition at x/c =  0.6218   71
 Side 2 forced transition at x/c =  1.0001   68

   5   rms: 0.9220E-01   max: 0.4473E+00   D at   75  2
       a =  7.000      CL =  1.8901
      Cm = -0.2850     CD =  0.01670   =>   CDf =  0.00554    CDp =  0.01116

 Side 1  free  transition at x/c =  0.6227   70
 Side 2 forced transition at x/c =  1.0001   69

   6   rms: 0.2751E-01   max: 0.1368E+00   D at   71  2
       a =  7.000      CL =  1.8641
      Cm = -0.2801     CD =  0.01781   =>   CDf =  0.00528    CDp =  0.01253

 Side 1  free  transition at x/c =  0.6233   70
 Side 2 forced transition at x/c =  1.0001   69

   7   rms: 0.2895E-02   max: 0.1626E-01   D at   71  2
       a =  7.000      CL =  1.8618
      Cm = -0.2797     CD =  0.01786   =>   CDf =  0.00526    CDp =  0.01260

 Side 1  free  transition at x/c =  0.6234   70
 Side 2 forced transition at x/c =  1.0001   69

   8   rms: 0.8119E-04   max: 0.8471E-03   D at   71  2
       a =  7.000      CL =  1.8617
      Cm = -0.2796     CD =  0.01786   =>   CDf =  0.00526    CDp =  0.01260

 Point added to stored polar  1
 Point written to save file  000217M0.04.log                                 
 Dump file unspecified or not available
 Calculating wake trajectory ...
 Calculating source influence matrix ...

 Solving BL system ...

 Side 1  free  transition at x/c =  0.6234   70
 Side 2 forced transition at x/c =  1.0001   69

   1   rms: 0.1307E+00   max: 0.5477E+00   T at   70  1
       a =  8.000      CL =  1.9052
      Cm = -0.2670     CD =  0.01945   =>   CDf =  0.00503    CDp =  0.01442

 Side 1  free  transition at x/c =  0.5855   69
 Side 2 forced transition at x/c =  1.0001   68

   2   rms: 0.8075E-01   max: -.5625E+00   D at   70  1   RLX: 0.889
       a =  8.000      CL =  1.9270
      Cm = -0.2705     CD =  0.01894   =>   CDf =  0.00519    CDp =  0.01374

 Side 1  free  transition at x/c =  0.5922   69
 Side 2 forced transition at x/c =  1.0001   68

   3   rms: 0.1898E-01   max: 0.9683E-01   D at   91  1
       a =  8.000      CL =  1.9114
      Cm = -0.2682     CD =  0.01942   =>   CDf =  0.00516    CDp =  0.01427

 Side 1  free  transition at x/c =  0.5913   69
 Side 2 forced transition at x/c =  1.0001   68

   4   rms: 0.8107E-03   max: 0.1248E-01   D at   91  1
       a =  8.000      CL =  1.9111
      Cm = -0.2681     CD =  0.01944   =>   CDf =  0.00516    CDp =  0.01428

 Side 1  free  transition at x/c =  0.5912   69
 Side 2 forced transition at x/c =  1.0001   68

   5   rms: 0.7201E-05   max: -.7927E-04   D at   91  1
       a =  8.000      CL =  1.9111
      Cm = -0.2681     CD =  0.01944   =>   CDf =  0.00516    CDp =  0.01428

 Point added to stored polar  1
 Point written to save file  000217M0.04.log                                 
 Dump file unspecified or not available
 Calculating wake trajectory ...
 Calculating source influence matrix ...

 Solving BL system ...

 Side 1  free  transition at x/c =  0.5912   69
 Side 2 forced transition at x/c =  1.0001   68

   1   rms: 0.1401E+00   max: 0.5282E+00   D at   88  1
       a =  9.000      CL =  1.9102
      Cm = -0.2490     CD =  0.02319   =>   CDf =  0.00491    CDp =  0.01827

 Side 1  free  transition at x/c =  0.5402   67
 Side 2 forced transition at x/c =  1.0001   67

   2   rms: 0.4667E-01   max: -.4691E+00   D at   68  1
       a =  9.000      CL =  1.9097
      Cm = -0.2497     CD =  0.02413   =>   CDf =  0.00538    CDp =  0.01875

 Side 1  free  transition at x/c =  0.5504   68
 Side 2 forced transition at x/c =  1.0001   67

   3   rms: 0.2927E-01   max: 0.1223E+00   C at   68  1
       a =  9.000      CL =  1.9358
      Cm = -0.2537     CD =  0.02274   =>   CDf =  0.00495    CDp =  0.01779

 Side 1  free  transition at x/c =  0.5452   68
 Side 2 forced transition at x/c =  1.0001   67

   4   rms: 0.1581E-02   max: -.1226E-01   D at   68  1
       a =  9.000      CL =  1.9362
      Cm = -0.2538     CD =  0.02282   =>   CDf =  0.00509    CDp =  0.01773

 Side 1  free  transition at x/c =  0.5452   68
 Side 2 forced transition at x/c =  1.0001   67

   5   rms: 0.8026E-04   max: -.3572E-03   D at   89  1
       a =  9.000      CL =  1.9362
      Cm = -0.2538     CD =  0.02282   =>   CDf =  0.00508    CDp =  0.01773

 Point added to stored polar  1
 Point written to save file  000217M0.04.log                                 
 Dump file unspecified or not available
 Calculating wake trajectory ...
 Calculating source influence matrix ...

 Solving BL system ...

 Side 1  free  transition at x/c =  0.5452   68
 Side 2 forced transition at x/c =  1.0001   67

   1   rms: 0.1584E+00   max: -.1000E+01   D at   69  1   RLX: 0.500
       a = 10.000      CL =  1.9598
      Cm = -0.2484     CD =  0.02423   =>   CDf =  0.00483    CDp =  0.01940

 Side 1  free  transition at x/c =  0.5051   66
 Side 2 forced transition at x/c =  1.0001   66

   2   rms: 0.9441E-01   max: 0.4808E+00   D at   88  1
       a = 10.000      CL =  1.9376
      Cm = -0.2379     CD =  0.02896   =>   CDf =  0.00515    CDp =  0.02381

 Side 1  free  transition at x/c =  0.4581   63
 Side 2 forced transition at x/c =  1.0001   66

   3   rms: 0.2351E-01   max: 0.1995E+00   D at   65  1
       a = 10.000      CL =  1.9245
      Cm = -0.2362     CD =  0.02999   =>   CDf =  0.00532    CDp =  0.02467

 Side 1  free  transition at x/c =  0.4733   64
 Side 2 forced transition at x/c =  1.0001   66

   4   rms: 0.9204E-02   max: 0.1557E+00   C at   64  1
       a = 10.000      CL =  1.9280
      Cm = -0.2368     CD =  0.02974   =>   CDf =  0.00508    CDp =  0.02466

 Side 1  free  transition at x/c =  0.4662   64
 Side 2 forced transition at x/c =  1.0001   66

   5   rms: 0.8331E-03   max: -.1479E-01   C at   64  1
       a = 10.000      CL =  1.9278
      Cm = -0.2367     CD =  0.02975   =>   CDf =  0.00516    CDp =  0.02459

 Side 1  free  transition at x/c =  0.4667   64
 Side 2 forced transition at x/c =  1.0001   66

   6   rms: 0.6422E-05   max: 0.1320E-03   C at   66  2
       a = 10.000      CL =  1.9278
      Cm = -0.2367     CD =  0.02975   =>   CDf =  0.00516    CDp =  0.02460

 Point added to stored polar  1
 Point written to save file  000217M0.04.log                                 
 Dump file unspecified or not available
 Calculating wake trajectory ...
 Calculating source influence matrix ...

 Solving BL system ...

 Side 1  free  transition at x/c =  0.4667   64
 Side 2 forced transition at x/c =  1.0001   66

   1   rms: 0.1919E+00   max: 0.1953E+01   C at   64  1   RLX: 0.613
       a = 11.000      CL =  1.9046
      Cm = -0.2251     CD =  0.03623   =>   CDf =  0.00517    CDp =  0.03105

 Side 1  free  transition at x/c =  0.3504   57
 Side 2 forced transition at x/c =  1.0001   66

   2   rms: 0.1128E+00   max: 0.1041E+01   C at   57  1
       a = 11.000      CL =  1.8474
      Cm = -0.2149     CD =  0.04547   =>   CDf =  0.00593    CDp =  0.03955

 Side 1  free  transition at x/c =  0.2802   53
 Side 2 forced transition at x/c =  1.0001   66

   3   rms: 0.4235E-01   max: -.8139E+00   C at   53  1   RLX: 0.614
       a = 11.000      CL =  1.8448
      Cm = -0.2163     CD =  0.04570   =>   CDf =  0.00629    CDp =  0.03941

 Side 1  free  transition at x/c =  0.2949   54
 Side 2 forced transition at x/c =  1.0001   66

   4   rms: 0.1614E-01   max: -.3205E+00   C at   54  1
       a = 11.000      CL =  1.8402
      Cm = -0.2146     CD =  0.04606   =>   CDf =  0.00612    CDp =  0.03994

 Side 1  free  transition at x/c =  0.3042   54
 Side 2 forced transition at x/c =  1.0001   66

   5   rms: 0.2115E-02   max: -.4374E-01   C at   54  1
       a = 11.000      CL =  1.8399
      Cm = -0.2146     CD =  0.04605   =>   CDf =  0.00601    CDp =  0.04003

 Side 1  free  transition at x/c =  0.3056   54
 Side 2 forced transition at x/c =  1.0001   66

   6   rms: 0.3159E-04   max: -.5160E-03   C at   54  1
       a = 11.000      CL =  1.8400
      Cm = -0.2146     CD =  0.04605   =>   CDf =  0.00600    CDp =  0.04004

 Point added to stored polar  1
 Point written to save file  000217M0.04.log                                 
 Dump file unspecified or not available
 Calculating wake trajectory ...
 Calculating source influence matrix ...

 Solving BL system ...

 Side 1  free  transition at x/c =  0.3056   54
 Side 2 forced transition at x/c =  1.0001   66

   1   rms: 0.4149E+00   max: 0.7270E+01   C at   54  1   RLX: 0.206
       a = 12.000      CL =  1.8146
      Cm = -0.2103     CD =  0.05101   =>   CDf =  0.00602    CDp =  0.04499

 Side 1  free  transition at x/c =  0.2549   51
 Side 2 forced transition at x/c =  1.0001   66

   2   rms: 0.3247E+00   max: 0.5878E+01   C at   51  1   RLX: 0.255
       a = 12.000      CL =  1.7920
      Cm = -0.2074     CD =  0.05571   =>   CDf =  0.00635    CDp =  0.04936

 Side 1  free  transition at x/c =  0.2095   48
 Side 2 forced transition at x/c =  1.0001   66

   3   rms: 0.2313E+00   max: 0.4269E+01   C at   48  1   RLX: 0.351
       a = 12.000      CL =  1.7706
      Cm = -0.2045     CD =  0.06044   =>   CDf =  0.00665    CDp =  0.05379

 Side 1  free  transition at x/c =  0.1726   46
 Side 2 forced transition at x/c =  1.0001   66

   4   rms: 0.1185E+00   max: 0.2117E+01   C at   46  1   RLX: 0.709
       a = 12.000      CL =  1.7450
      Cm = -0.1998     CD =  0.06669   =>   CDf =  0.00687    CDp =  0.05982

 Side 1  free  transition at x/c =  0.1412   44
 Side 2 forced transition at x/c =  1.0001   66

   5   rms: 0.2608E-01   max: 0.3146E+00   C at   44  1
       a = 12.000      CL =  1.7350
      Cm = -0.1977     CD =  0.06883   =>   CDf =  0.00702    CDp =  0.06180

 Side 1  free  transition at x/c =  0.1326   43
 Side 2 forced transition at x/c =  1.0001   66

   6   rms: 0.4439E-02   max: -.8893E-01   C at   43  1
       a = 12.000      CL =  1.7332
      Cm = -0.1975     CD =  0.06865   =>   CDf =  0.00705    CDp =  0.06159

 Side 1  free  transition at x/c =  0.1329   43
 Side 2 forced transition at x/c =  1.0001   66

   7   rms: 0.8354E-02   max: -.1875E+00   C at   43  1
       a = 12.000      CL =  1.7328
      Cm = -0.1975     CD =  0.06866   =>   CDf =  0.00706    CDp =  0.06160

 Side 1  free  transition at x/c =  0.1334   43
 Side 2 forced transition at x/c =  1.0001   66

   8   rms: 0.7947E-02   max: -.1777E+00   C at   43  1
       a = 12.000      CL =  1.7329
      Cm = -0.1975     CD =  0.06864   =>   CDf =  0.00706    CDp =  0.06158

 Side 1  free  transition at x/c =  0.1333   43
 Side 2 forced transition at x/c =  1.0001   66

   9   rms: 0.8093E-02   max: -.1812E+00   C at   43  1
       a = 12.000      CL =  1.7329
      Cm = -0.1975     CD =  0.06865   =>   CDf =  0.00706    CDp =  0.06159

 Side 1  free  transition at x/c =  0.1333   43
 Side 2 forced transition at x/c =  1.0001   66

  10   rms: 0.8052E-02   max: -.1802E+00   C at   43  1
       a = 12.000      CL =  1.7329
      Cm = -0.1975     CD =  0.06865   =>   CDf =  0.00706    CDp =  0.06159

 Side 1  free  transition at x/c =  0.1333   43
 Side 2 forced transition at x/c =  1.0001   66

  11   rms: 0.8065E-02   max: -.1805E+00   C at   43  1
       a = 12.000      CL =  1.7329
      Cm = -0.1975     CD =  0.06865   =>   CDf =  0.00706    CDp =  0.06159

 Side 1  free  transition at x/c =  0.1333   43
 Side 2 forced transition at x/c =  1.0001   66

  12   rms: 0.8060E-02   max: -.1804E+00   C at   43  1
       a = 12.000      CL =  1.7329
      Cm = -0.1975     CD =  0.06865   =>   CDf =  0.00706    CDp =  0.06159

 Side 1  free  transition at x/c =  0.1333   43
 Side 2 forced transition at x/c =  1.0001   66

  13   rms: 0.8062E-02   max: -.1805E+00   C at   43  1
       a = 12.000      CL =  1.7329
      Cm = -0.1975     CD =  0.06865   =>   CDf =  0.00706    CDp =  0.06159

 Side 1  free  transition at x/c =  0.1333   43
 Side 2 forced transition at x/c =  1.0001   66

  14   rms: 0.8061E-02   max: -.1805E+00   C at   43  1
       a = 12.000      CL =  1.7329
      Cm = -0.1975     CD =  0.06865   =>   CDf =  0.00706    CDp =  0.06159

 Side 1  free  transition at x/c =  0.1333   43
 Side 2 forced transition at x/c =  1.0001   66

  15   rms: 0.8062E-02   max: -.1805E+00   C at   43  1
       a = 12.000      CL =  1.7329
      Cm = -0.1975     CD =  0.06865   =>   CDf =  0.00706    CDp =  0.06159

 Side 1  free  transition at x/c =  0.1333   43
 Side 2 forced transition at x/c =  1.0001   66

  16   rms: 0.8062E-02   max: -.1805E+00   C at   43  1
       a = 12.000      CL =  1.7329
      Cm = -0.1975     CD =  0.06865   =>   CDf =  0.00706    CDp =  0.06159

 Side 1  free  transition at x/c =  0.1333   43
 Side 2 forced transition at x/c =  1.0001   66

  17   rms: 0.8062E-02   max: -.1805E+00   C at   43  1
       a = 12.000      CL =  1.7329
      Cm = -0.1975     CD =  0.06865   =>   CDf =  0.00706    CDp =  0.06159

 Side 1  free  transition at x/c =  0.1333   43
 Side 2 forced transition at x/c =  1.0001   66

  18   rms: 0.8062E-02   max: -.1805E+00   C at   43  1
       a = 12.000      CL =  1.7329
      Cm = -0.1975     CD =  0.06865   =>   CDf =  0.00706    CDp =  0.06159

 Side 1  free  transition at x/c =  0.1333   43
 Side 2 forced transition at x/c =  1.0001   66

  19   rms: 0.8062E-02   max: -.1805E+00   C at   43  1
       a = 12.000      CL =  1.7329
      Cm = -0.1975     CD =  0.06865   =>   CDf =  0.00706    CDp =  0.06159

 Side 1  free  transition at x/c =  0.1333   43
 Side 2 forced transition at x/c =  1.0001   66

  20   rms: 0.8062E-02   max: -.1805E+00   C at   43  1
       a = 12.000      CL =  1.7329
      Cm = -0.1975     CD =  0.06865   =>   CDf =  0.00706    CDp =  0.06159

 Side 1  free  transition at x/c =  0.1333   43
 Side 2 forced transition at x/c =  1.0001   66

  21   rms: 0.8062E-02   max: -.1805E+00   C at   43  1
       a = 12.000      CL =  1.7329
      Cm = -0.1975     CD =  0.06865   =>   CDf =  0.00706    CDp =  0.06159

 Side 1  free  transition at x/c =  0.1333   43
 Side 2 forced transition at x/c =  1.0001   66

  22   rms: 0.8062E-02   max: -.1805E+00   C at   43  1
       a = 12.000      CL =  1.7329
      Cm = -0.1975     CD =  0.06865   =>   CDf =  0.00706    CDp =  0.06159

 Side 1  free  transition at x/c =  0.1333   43
 Side 2 forced transition at x/c =  1.0001   66

  23   rms: 0.8062E-02   max: -.1805E+00   C at   43  1
       a = 12.000      CL =  1.7329
      Cm = -0.1975     CD =  0.06865   =>   CDf =  0.00706    CDp =  0.06159

 Side 1  free  transition at x/c =  0.1333   43
 Side 2 forced transition at x/c =  1.0001   66

  24   rms: 0.8062E-02   max: -.1805E+00   C at   43  1
       a = 12.000      CL =  1.7329
      Cm = -0.1975     CD =  0.06865   =>   CDf =  0.00706    CDp =  0.06159

 Side 1  free  transition at x/c =  0.1333   43
 Side 2 forced transition at x/c =  1.0001   66

  25   rms: 0.8062E-02   max: -.1805E+00   C at   43  1
       a = 12.000      CL =  1.7329
      Cm = -0.1975     CD =  0.06865   =>   CDf =  0.00706    CDp =  0.06159
 VISCAL:  Convergence failed
 Calculating wake trajectory ...
 Calculating source influence matrix ...

 Solving BL system ...

 Side 1  free  transition at x/c =  0.1333   43
 Side 2 forced transition at x/c =  1.0001   66

   1   rms: 0.1672E+00   max: 0.2375E+01   C at   43  1   RLX: 0.457
       a = 13.000      CL =  1.7307
      Cm = -0.1944     CD =  0.07522   =>   CDf =  0.00708    CDp =  0.06814

 Side 1  free  transition at x/c =  0.0982   41
 Side 2 forced transition at x/c =  1.0001   66

   2   rms: 0.7684E-01   max: -.5965E+00   D at   41  1   RLX: 0.838
       a = 13.000      CL =  1.7192
      Cm = -0.1912     CD =  0.08262   =>   CDf =  0.00700    CDp =  0.07562

 Side 1  free  transition at x/c =  0.0867   41
 Side 2 forced transition at x/c =  1.0001   65

   3   rms: 0.2374E-01   max: -.3339E+00   D at   42  1
       a = 13.000      CL =  1.7161
      Cm = -0.1900     CD =  0.08338   =>   CDf =  0.00721    CDp =  0.07617

 Side 1  free  transition at x/c =  0.0847   41
 Side 2 forced transition at x/c =  1.0001   65

   4   rms: 0.5534E-02   max: -.3645E-01   D at   42  1
       a = 13.000      CL =  1.7111
      Cm = -0.1897     CD =  0.08376   =>   CDf =  0.00724    CDp =  0.07652

 Side 1  free  transition at x/c =  0.0846   41
 Side 2 forced transition at x/c =  1.0001   65

   5   rms: 0.2699E-03   max: 0.1817E-02   D at   81  2
       a = 13.000      CL =  1.7109
      Cm = -0.1897     CD =  0.08371   =>   CDf =  0.00723    CDp =  0.07648

 Side 1  free  transition at x/c =  0.0846   41
 Side 2 forced transition at x/c =  1.0001   65

   6   rms: 0.1066E-04   max: -.1093E-03   C at   65  2
       a = 13.000      CL =  1.7109
      Cm = -0.1897     CD =  0.08371   =>   CDf =  0.00723    CDp =  0.07648

 Point added to stored polar  1
 Point written to save file  000217M0.04.log                                 
 Dump file unspecified or not available
 Calculating wake trajectory ...
 Calculating source influence matrix ...

 Solving BL system ...

 Side 1  free  transition at x/c =  0.0846   41
 Side 2 forced transition at x/c =  1.0001   65

   1   rms: 0.1453E+00   max: -.8172E+00   D at   41  1   RLX: 0.403
       a = 14.000      CL =  1.7047
      Cm = -0.1873     CD =  0.09062   =>   CDf =  0.00725    CDp =  0.08336

 Side 1  free  transition at x/c =  0.0765   40
 Side 2 forced transition at x/c =  1.0001   65

   2   rms: 0.8038E-01   max: -.6690E+00   D at   40  1   RLX: 0.747
       a = 14.000      CL =  1.7232
      Cm = -0.1863     CD =  0.09357   =>   CDf =  0.00717    CDp =  0.08640

 MRCHDU: Convergence failed at  40  side 1    Res =  0.1081E+02
 Side 1  free  transition at x/c =  0.0697   39
 Side 2 forced transition at x/c =  1.0001   65

   3   rms: 0.4074E-01   max: -.4522E+00   D at   40  1
       a = 14.000      CL =  1.7232
      Cm = -0.1852     CD =  0.09532   =>   CDf =  0.00701    CDp =  0.08832

 Side 1  free  transition at x/c =  0.0667   39
 Side 2 forced transition at x/c =  1.0001   65

   4   rms: 0.9722E-02   max: -.5492E-01   D at   41  1
       a = 14.000      CL =  1.7135
      Cm = -0.1846     CD =  0.09627   =>   CDf =  0.00715    CDp =  0.08912

 Side 1  free  transition at x/c =  0.0671   39
 Side 2 forced transition at x/c =  1.0001   65

   5   rms: 0.1242E-03   max: 0.9445E-03   D at   82  2
       a = 14.000      CL =  1.7135
      Cm = -0.1846     CD =  0.09620   =>   CDf =  0.00712    CDp =  0.08908

 Side 1  free  transition at x/c =  0.0671   39
 Side 2 forced transition at x/c =  1.0001   65

   6   rms: 0.8289E-05   max: 0.7041E-04   C at   65  2
       a = 14.000      CL =  1.7136
      Cm = -0.1846     CD =  0.09620   =>   CDf =  0.00712    CDp =  0.08908

 Point added to stored polar  1
 Point written to save file  000217M0.04.log                                 
 Dump file unspecified or not available
 Calculating wake trajectory ...
 Calculating source influence matrix ...

 Solving BL system ...

 Side 1  free  transition at x/c =  0.0671   39
 Side 2 forced transition at x/c =  1.0001   65

   1   rms: 0.1224E+00   max: 0.6445E+00   T at   39  1   RLX: 0.377
       a = 15.000      CL =  1.7162
      Cm = -0.1833     CD =  0.10161   =>   CDf =  0.00678    CDp =  0.09483

 Side 1  free  transition at x/c =  0.0632   39
 Side 2 forced transition at x/c =  1.0001   64

   2   rms: 0.7256E-01   max: 0.4397E+00   T at   39  1
       a = 15.000      CL =  1.7357
      Cm = -0.1813     CD =  0.10763   =>   CDf =  0.00712    CDp =  0.10051

 Side 1  free  transition at x/c =  0.0558   38
 Side 2 forced transition at x/c =  1.0001   64

   3   rms: 0.2164E-01   max: -.1265E+00   D at   39  1
       a = 15.000      CL =  1.7167
      Cm = -0.1807     CD =  0.10876   =>   CDf =  0.00712    CDp =  0.10164

 Side 1  free  transition at x/c =  0.0568   39
 Side 2 forced transition at x/c =  1.0001   64

   4   rms: 0.5504E-02   max: -.6593E-01   D at   38  1
       a = 15.000      CL =  1.7197
      Cm = -0.1807     CD =  0.10811   =>   CDf =  0.00704    CDp =  0.10107

 Side 1  free  transition at x/c =  0.0569   39
 Side 2 forced transition at x/c =  1.0001   64

   5   rms: 0.7403E-03   max: 0.3935E-02   T at   39  1
       a = 15.000      CL =  1.7202
      Cm = -0.1807     CD =  0.10811   =>   CDf =  0.00701    CDp =  0.10110

 Side 1  free  transition at x/c =  0.0568   39
 Side 2 forced transition at x/c =  1.0001   64

   6   rms: 0.4362E-04   max: -.3510E-03   D at   81  2
       a = 15.000      CL =  1.7202
      Cm = -0.1808     CD =  0.10813   =>   CDf =  0.00702    CDp =  0.10111

 Point added to stored polar  1
 Point written to save file  000217M0.04.log                                 
 Dump file unspecified or not available

.OPERva   c>  
 XFOIL   c>  
0.1
resp: 
 ===================================================
  XFOIL Version 6.97
  Copyright (C) 2000   Mark Drela, Harold Youngren

  This software comes with ABSOLUTELY NO WARRANTY,
    subject to the GNU General Public License.

  Caveat computor
 ===================================================

 File  xfoil.def  not found

   QUIT    Exit program

  .OPER    Direct operating point(s)
  .MDES    Complex mapping design routine
  .QDES    Surface speed design routine
  .GDES    Geometry design routine

   SAVE f  Write airfoil to labeled coordinate file
   PSAV f  Write airfoil to plain coordinate file
   ISAV f  Write airfoil to ISES coordinate file
   MSAV f  Write airfoil to MSES coordinate file
   REVE    Reverse written-airfoil node ordering
   DELI i  Change written-airfoil file delimiters

   LOAD f  Read buffer airfoil from coordinate file
   NACA i  Set NACA 4,5-digit airfoil and buffer airfoil
   INTE    Set buffer airfoil by interpolating two airfoils
   NORM    Buffer airfoil normalization toggle
   HALF    Halve the number of points in buffer airfoil
   XYCM rr Change CM reference location, currently  0.25000 0.00000

   BEND    Display structural properties of current airfoil

   PCOP    Set current-airfoil panel nodes directly from buffer airfoil points
   PANE    Set current-airfoil panel nodes ( 160 ) based on curvature
  .PPAR    Show/change paneling

  .PLOP    Plotting options

   WDEF f  Write  current-settings file
   RDEF f  Reread current-settings file
   NAME s  Specify new airfoil name
   NINC    Increment name version number

   Z       Zoom    | (available in all menus)
   U       Unzoom  | 

 XFOIL   c>   ...............................................

  G raphics-enable flag:        T
  S ize of plot object          10.00"
  A spect ratio of plot object   0.5500
  P age dimensions              11.00 x  8.50"
  M argins from page edges       0.00",  0.00"
  F ont size (relative)          0.0150
  W indow/screen size fraction   0.8000
  B lowup input method:        Cursor    
  O rientation of plot:        Landscape 
  C olor PostScript output?     F

      Option, Value   (or <Return>)    c>   ...............................................

  G raphics-enable flag:        F
  S ize of plot object          10.00"
  A spect ratio of plot object   0.5500
  P age dimensions              11.00 x  8.50"
  M argins from page edges       0.00",  0.00"
  F ont size (relative)          0.0150
  W indow/screen size fraction   0.8000
  B lowup input method:        Cursor    
  O rientation of plot:        Landscape 
  C olor PostScript output?     F

      Option, Value   (or <Return>)    c>  
 XFOIL   c>  
 Labeled airfoil file.  Name:  000217                                          

 Number of input coordinate points: 200
 Clockwise ordering
 Max thickness =     0.139473  at x =   0.287
 Max camber    =     0.089365  at x =   0.516

  LE  x,y  =  -0.00000   0.00007  |   Chord =   0.99988
  TE  x,y  =   0.99988   0.00006  |

 Current airfoil nodes set from buffer airfoil nodes ( 200 )

 XFOIL   c>  
 You are working with the buffer airfoil

.GDES   c>  
  i       x        y      angle
   2   0.9990   0.0005    0.014
   3   0.9978   0.0011    0.086
   4   0.9961   0.0019    0.017
   5   0.9938   0.0030    0.063
   6   0.9911   0.0043    0.080
   7   0.9880   0.0059    0.086
   8   0.9843   0.0076    0.105
   9   0.9801   0.0096    0.120
  10   0.9755   0.0118    0.131
  11   0.9704   0.0143    0.148
  12   0.9649   0.0169    0.162
  13   0.9589   0.0197    0.174
  14   0.9524   0.0227    0.193
  15   0.9455   0.0259    0.215
  16   0.9382   0.0292    0.221
  17   0.9304   0.0328    0.250
  18   0.9222   0.0364    0.268
  19   0.9135   0.0402    0.276
  20   0.9045   0.0442    0.303
  21   0.8951   0.0482    0.325
  22   0.8853   0.0524    0.346
  23   0.8751   0.0566    0.366
  24   0.8645   0.0609    0.389
  25   0.8536   0.0653    0.405
  26   0.8423   0.0697    0.441
  27   0.8307   0.0741    0.456
  28   0.8187   0.0786    0.483
  29   0.8065   0.0831    0.506
  30   0.7939   0.0875    0.535
  31   0.7810   0.0919    0.562
  32   0.7679   0.0963    0.582
  33   0.7545   0.1006    0.615
  34   0.7409   0.1048    0.637
  35   0.7270   0.1090    0.668
  36   0.7129   0.1130    0.691
  37   0.6986   0.1169    0.720
  38   0.6841   0.1206    0.744
  39   0.6694   0.1242    0.774
  40   0.6545   0.1276    0.792
  41   0.6395   0.1309    0.826
  42   0.6243   0.1339    0.844
  43   0.6091   0.1367    0.870
  44   0.5937   0.1394    0.890
  45   0.5782   0.1417    0.908
  46   0.5627   0.1439    0.934
  47   0.5471   0.1458    0.949
  48   0.5314   0.1474    0.963
  49   0.5157   0.1488    0.980
  50   0.5000   0.1499    0.989
  51   0.4843   0.1507    1.003
  52   0.4686   0.1513    1.009
  53   0.4529   0.1515    1.017
  54   0.4373   0.1515    1.017
  55   0.4218   0.1513    1.023
  56   0.4063   0.1507    1.020
  57   0.3909   0.1499    1.016
  58   0.3757   0.1488    1.013
  59   0.3605   0.1474    1.007
  60   0.3455   0.1458    0.997
  61   0.3306   0.1440    0.988
  62   0.3159   0.1419    0.976
  63   0.3014   0.1396    0.962
  64   0.2871   0.1371    0.948
  65   0.2730   0.1343    0.937
  66   0.2591   0.1314    0.918
  67   0.2455   0.1283    0.909
  68   0.2321   0.1250    0.883
  69   0.2190   0.1216    0.879
  70   0.2061   0.1180    0.862
  71   0.1935   0.1143    0.852
  72   0.1813   0.1105    0.838
  73   0.1693   0.1067    0.835
  74   0.1577   0.1027    0.837
  75   0.1464   0.0986    0.826
  76   0.1355   0.0945    0.839
  77   0.1249   0.0904    0.849
  78   0.1147   0.0862    0.861
  79   0.1049   0.0820    0.892
  80   0.0955   0.0778    0.926
  81   0.0865   0.0737    0.968
  82   0.0778   0.0695    1.032
  83   0.0696   0.0653    1.100
  84   0.0618   0.0612    1.188
  85   0.0545   0.0571    1.312
  86   0.0476   0.0530    1.458
  87   0.0411   0.0489    1.604
  88   0.0351   0.0450    1.841
  89   0.0296   0.0410    2.068
  90   0.0245   0.0371    2.393
  91   0.0199   0.0333    2.764
  92   0.0157   0.0294    3.213
  93   0.0120   0.0257    3.711
  94   0.0089   0.0219    4.367
  95   0.0062   0.0182    5.033
  96   0.0039   0.0145    5.776
  97   0.0022   0.0109    6.540
  98   0.0010   0.0072    7.177
  99   0.0002   0.0036    7.635
 100   0.0000   0.0000    8.085
 101   0.0002  -0.0034    8.277
 102   0.0010  -0.0067    8.062
 103   0.0022  -0.0100    7.766
 104   0.0039  -0.0132    7.335
 105   0.0062  -0.0163    6.858
 106   0.0089  -0.0193    6.397
 107   0.0120  -0.0220    5.855
 108   0.0157  -0.0246    5.367
 109   0.0199  -0.0270    4.894
 110   0.0245  -0.0292    4.436
 111   0.0296  -0.0311    3.996
 112   0.0351  -0.0327    3.623
 113   0.0411  -0.0341    3.246
 114   0.0476  -0.0352    2.920
 115   0.0545  -0.0361    2.612
 116   0.0618  -0.0366    2.317
 117   0.0696  -0.0368    2.079
 118   0.0778  -0.0368    1.829
 119   0.0865  -0.0365    1.610
 120   0.0955  -0.0359    1.417
 121   0.1049  -0.0351    1.232
 122   0.1147  -0.0340    1.063
 123   0.1249  -0.0327    0.904
 124   0.1355  -0.0311    0.767
 125   0.1464  -0.0294    0.636
 126   0.1577  -0.0275    0.508
 127   0.1693  -0.0254    0.406
 128   0.1813  -0.0232    0.304
 129   0.1935  -0.0208    0.205
 130   0.2061  -0.0183    0.129
 131   0.2190  -0.0158    0.045
 132   0.2321  -0.0132   -0.022
 133   0.2455  -0.0105   -0.081
 134   0.2591  -0.0078   -0.139
 135   0.2730  -0.0051   -0.190
 136   0.2871  -0.0024   -0.230
 137   0.3014   0.0003   -0.274
 138   0.3159   0.0029   -0.298
 139   0.3306   0.0055   -0.328
 140   0.3455   0.0081   -0.348
 141   0.3605   0.0105   -0.376
 142   0.3757   0.0129   -0.378
 143   0.3909   0.0152   -0.395
 144   0.4063   0.0175   -0.405
 145   0.4218   0.0196   -0.407
 146   0.4373   0.0216   -0.409
 147   0.4529   0.0235   -0.410
 148   0.4686   0.0253   -0.413
 149   0.4843   0.0270   -0.406
 150   0.5000   0.0286   -0.408
 151   0.5157   0.0301   -0.404
 152   0.5314   0.0314   -0.404
 153   0.5471   0.0327   -0.399
 154   0.5627   0.0338   -0.405
 155   0.5782   0.0348   -0.398
 156   0.5937   0.0357   -0.407
 157   0.6091   0.0365   -0.402
 158   0.6243   0.0372   -0.414
 159   0.6395   0.0378   -0.419
 160   0.6545   0.0382   -0.422
 161   0.6694   0.0385   -0.441
 162   0.6841   0.0388   -0.444
 163   0.6986   0.0389   -0.463
 164   0.7129   0.0388   -0.476
 165   0.7270   0.0387   -0.492
 166   0.7409   0.0385   -0.505
 167   0.7545   0.0381   -0.529
 168   0.7679   0.0376   -0.542
 169   0.7810   0.0370   -0.568
 170   0.7939   0.0363   -0.573
 171   0.8065   0.0355   -0.604
 172   0.8187   0.0345   -0.614
 173   0.8307   0.0335   -0.633
 174   0.8423   0.0324   -0.645
 175   0.8536   0.0311   -0.657
 176   0.8645   0.0298   -0.669
 177   0.8751   0.0284   -0.674
 178   0.8853   0.0269   -0.679
 179   0.8951   0.0254   -0.683
 180   0.9045   0.0238   -0.673
 181   0.9135   0.0221   -0.681
 182   0.9222   0.0205   -0.663
 183   0.9304   0.0188   -0.651
 184   0.9382   0.0171   -0.646
 185   0.9455   0.0154   -0.603
 186   0.9524   0.0137   -0.608
 187   0.9589   0.0121   -0.562
 188   0.9649   0.0105   -0.534
 189   0.9704   0.0090   -0.506
 190   0.9755   0.0076   -0.472
 191   0.9801   0.0062   -0.430
 192   0.9843   0.0050   -0.389
 193   0.9880   0.0039   -0.329
 194   0.9911   0.0029   -0.327
 195   0.9938   0.0020   -0.218
 196   0.9961   0.0013   -0.240
 197   0.9978   0.0007   -0.136
 198   0.9990   0.0003   -0.108
 199   0.9998   0.0001    0.023

 Maximum panel corner angle =  8.277   at  i,x,y  = 101   0.0002  -0.0034

 Enter corner angle criterion for refinement (deg):   4.138
 Enter type of spline parameter (1=uniform, 2=arclength):   1
 Enter refinement x limits:  -0.10000   1.10000
 Number of points added:           34
 Max thickness =     0.139471  at x =   0.287
 Max camber    =     0.089397  at x =   0.516

 Maximum panel corner angle =  3.623   at  i,x,y  = 146   0.0351  -0.0327

.GDES   c>  
 Buffer airfoil is not identical to current airfoil

 XFOIL   c>  
 Blunt trailing edge.  Gap =  0.00028

 Paneling parameters used...
   Number of panel nodes       160
   Panel bunching parameter    1.000
   TE/LE panel density ratio   0.150
   Refined-area/LE panel density ratio    0.200
   Top    side refined area x/c limits  1.000 1.000
   Bottom side refined area x/c limits  1.000 1.000

 XFOIL   c>  
.OPERi   c>   Current iteration limit:          20

Enter new iteration limit   i>  
Enter new iteration limit   i>  
Enter new iteration limit   i>  
.OPERi   c>  
 M  =    0.0000
 Re =  0.3000E+06

.OPERv   c>  
 Sonic Cp =    -66.86      Sonic Q/Qinf =     9.138


.OPERv   c>  
 Polar  1 newly created for accumulation
 Airfoil archived with polar: 000217                                          

Enter  polar save filename  OR  <return> for no file   s>  
 New polar save file available

Enter  polar dump filename  OR  <return> for no file   s>  
 Polar dump file will NOT be written

 Polar accumulation enabled

.OPERva   c>   Calculating unit vorticity distributions ...
 Calculating wake trajectory ...
 Calculating source influence matrix ...

 Solving BL system ...

 Initializing BL ...
    side            1  ...
 MRCHUE: Inverse mode at  61     Hk =   3.949
 MRCHUE: Inverse mode at  62     Hk =   4.617
 MRCHUE: Inverse mode at  63     Hk =   5.271
 MRCHUE: Inverse mode at  64     Hk =   5.915
 MRCHUE: Inverse mode at  65     Hk =   6.551
 MRCHUE: Inverse mode at  66     Hk =   7.181
 MRCHUE: Inverse mode at  67     Hk =   7.807
 MRCHUE: Inverse mode at  68     Hk =   8.430
 MRCHUE: Inverse mode at  69     Hk =   9.050
 MRCHUE: Inverse mode at  70     Hk =   8.632
 MRCHUE: Inverse mode at  71     Hk =   6.008
 MRCHUE: Inverse mode at  72     Hk =   4.463
 MRCHUE: Inverse mode at  73     Hk =   3.357
 MRCHUE: Inverse mode at  87     Hk =   2.500
 MRCHUE: Convergence failed at  88  side 1    Res =  0.5261E+01
    side            2  ...
 MRCHUE: Inverse mode at  27     Hk =   4.238
 MRCHUE: Inverse mode at  28     Hk =   5.171
 MRCHUE: Inverse mode at  29     Hk =   6.088
 MRCHUE: Inverse mode at  30     Hk =   6.989
 MRCHUE: Inverse mode at  31     Hk =   7.869
 MRCHUE: Inverse mode at  32     Hk =   8.721
 MRCHUE: Inverse mode at  33     Hk =   9.544
 MRCHUE: Inverse mode at  34     Hk =   6.593
 MRCHUE: Inverse mode at  35     Hk =   4.364
 MRCHUE: Inverse mode at  36     Hk =   2.965

 MRCHDU: Convergence failed at  88  side 1    Res =  0.4537E+01
 Side 1  free  transition at x/c =  0.7115   70
 Side 2  free  transition at x/c =  0.2846   34

   1   rms: 0.2371E+00   max: -.1043E+01   D at   74  2   RLX: 0.479
       a =  2.000      CL =  1.4617
      Cm = -0.3122     CD =  0.01294   =>   CDf =  0.00701    CDp =  0.00594

 Side 1  free  transition at x/c =  0.7141   69
 Side 2  free  transition at x/c =  0.2865   35

   2   rms: 0.1122E+00   max: -.5558E+00   D at   37  2   RLX: 0.900
       a =  2.000      CL =  1.3782
      Cm = -0.2926     CD =  0.01536   =>   CDf =  0.00694    CDp =  0.00842

 Side 1  free  transition at x/c =  0.7157   70
 Side 2  free  transition at x/c =  0.2873   35

   3   rms: 0.1660E-01   max: -.2165E+00   D at   37  2
       a =  2.000      CL =  1.3730
      Cm = -0.2912     CD =  0.01580   =>   CDf =  0.00693    CDp =  0.00887

 Side 1  free  transition at x/c =  0.7145   69
 Side 2  free  transition at x/c =  0.2844   35

   4   rms: 0.9393E-02   max: 0.6711E-01   D at   70  1
       a =  2.000      CL =  1.3656
      Cm = -0.2898     CD =  0.01593   =>   CDf =  0.00694    CDp =  0.00899

 Side 1  free  transition at x/c =  0.7133   69
 Side 2  free  transition at x/c =  0.2829   35

   5   rms: 0.6757E-03   max: 0.4927E-02   D at   70  1
       a =  2.000      CL =  1.3662
      Cm = -0.2900     CD =  0.01592   =>   CDf =  0.00693    CDp =  0.00900

 Side 1  free  transition at x/c =  0.7133   69
 Side 2  free  transition at x/c =  0.2830   35

   6   rms: 0.8474E-05   max: 0.4021E-04   D at   84  1
       a =  2.000      CL =  1.3662
      Cm = -0.2899     CD =  0.01592   =>   CDf =  0.00692    CDp =  0.00900

 Point added to stored polar  1
 Point written to save file  000217M0.1.log                                  
 Dump file unspecified or not available
 Calculating wake trajectory ...
 Calculating source influence matrix ...

 Solving BL system ...

 Side 1  free  transition at x/c =  0.7133   69
 Side 2  free  transition at x/c =  0.2830   35

   1   rms: 0.1719E+00   max: -.1140E+01   T at   35  2   RLX: 0.439
       a =  3.000      CL =  1.4037
      Cm = -0.2883     CD =  0.01631   =>   CDf =  0.00694    CDp =  0.00937

 Side 1  free  transition at x/c =  0.7052   69
 Side 2  free  transition at x/c =  0.2989   35

   2   rms: 0.1052E+00   max: -.1003E+01   T at   35  2   RLX: 0.499
       a =  3.000      CL =  1.4385
      Cm = -0.2885     CD =  0.01685   =>   CDf =  0.00673    CDp =  0.01012

 MRCHDU: Convergence failed at  36  side 2    Res =  0.1431E+01
 MRCHDU: Convergence failed at  37  side 2    Res =  0.1013E+02
 MRCHDU: Convergence failed at  38  side 2    Res =  0.3398E+01
 MRCHDU: Convergence failed at  39  side 2    Res =  0.2533E+01
 MRCHDU: Convergence failed at  40  side 2    Res =  0.2598E+01
 MRCHDU: Convergence failed at  41  side 2    Res =  0.2718E+01
 MRCHDU: Convergence failed at  42  side 2    Res =  0.2859E+01
 MRCHDU: Convergence failed at  43  side 2    Res =  0.3009E+01
 MRCHDU: Convergence failed at  44  side 2    Res =  0.3177E+01
 MRCHDU: Convergence failed at  45  side 2    Res =  0.3322E+01
 MRCHDU: Convergence failed at  46  side 2    Res =  0.3508E+01
 MRCHDU: Convergence failed at  47  side 2    Res =  0.3707E+01
 MRCHDU: Convergence failed at  48  side 2    Res =  0.3922E+01
 MRCHDU: Convergence failed at  49  side 2    Res =  0.4154E+01
 MRCHDU: Convergence failed at  50  side 2    Res =  0.4404E+01
 MRCHDU: Convergence failed at  51  side 2    Res =  0.4681E+01
 MRCHDU: Convergence failed at  52  side 2    Res =  0.4982E+01
 MRCHDU: Convergence failed at  53  side 2    Res =  0.5309E+01
 MRCHDU: Convergence failed at  54  side 2    Res =  0.5661E+01
 MRCHDU: Convergence failed at  55  side 2    Res =  0.6052E+01
 MRCHDU: Convergence failed at  56  side 2    Res =  0.6538E+01
 MRCHDU: Convergence failed at  57  side 2    Res =  0.7007E+01
 MRCHDU: Convergence failed at  58  side 2    Res =  0.7500E+01
 MRCHDU: Convergence failed at  59  side 2    Res =  0.8023E+01
 MRCHDU: Convergence failed at  60  side 2    Res =  0.8560E+01
 MRCHDU: Convergence failed at  61  side 2    Res =  0.9107E+01
 MRCHDU: Convergence failed at  62  side 2    Res =  0.9619E+01
 MRCHDU: Convergence failed at  63  side 2    Res =  0.1010E+02
 MRCHDU: Convergence failed at  64  side 2    Res =  0.1055E+02
 MRCHDU: Convergence failed at  65  side 2    Res =  0.1099E+02
 MRCHDU: Convergence failed at  66  side 2    Res =  0.1144E+02
 MRCHDU: Convergence failed at  67  side 2    Res =  0.1189E+02
 MRCHDU: Convergence failed at  68  side 2    Res =  0.1403E+02
 MRCHDU: Convergence failed at  69  side 2    Res =  0.2369E+02
 MRCHDU: Convergence failed at  70  side 2    Res =  0.4661E+02
 MRCHDU: Convergence failed at  71  side 2    Res =  0.7221E+01
 Side 1  free  transition at x/c =  0.7023   70
 Side 2  free  transition at x/c =  0.3179   35

   3   rms: 0.1741E+00   max: -.7507E+00   D at   71  2   RLX: 0.666
       a =  3.000      CL =  1.4331
      Cm = -0.2765     CD =  0.01558   =>   CDf =  0.00494    CDp =  0.01064

 Side 1  free  transition at x/c =  0.7010   70
 Side 2  free  transition at x/c =  0.3177   35

   4   rms: 0.5904E-01   max: -.5140E+00   D at   36  2   RLX: 0.973
       a =  3.000      CL =  1.4799
      Cm = -0.2905     CD =  0.01649   =>   CDf =  0.00698    CDp =  0.00952

 MRCHDU: Convergence failed at  37  side 2    Res =  0.3307E+01
 MRCHDU: Convergence failed at  38  side 2    Res =  0.3411E+01
 MRCHDU: Convergence failed at  39  side 2    Res =  0.1102E+02
 MRCHDU: Convergence failed at  40  side 2    Res =  0.4856E+02
 MRCHDU: Convergence failed at  41  side 2    Res =  0.9039E+04
 MRCHDU: Convergence failed at  42  side 2    Res =  0.1949E+03
 MRCHDU: Convergence failed at  43  side 2    Res =  0.4573E+03
 MRCHDU: Convergence failed at  44  side 2    Res =  0.7502E+02
 MRCHDU: Convergence failed at  45  side 2    Res =  0.3773E+02
 MRCHDU: Convergence failed at  46  side 2    Res =  0.2545E+02
 MRCHDU: Convergence failed at  47  side 2    Res =  0.1904E+02
 MRCHDU: Convergence failed at  48  side 2    Res =  0.1560E+02
 MRCHDU: Convergence failed at  49  side 2    Res =  0.1335E+02
 MRCHDU: Convergence failed at  50  side 2    Res =  0.1169E+02
 MRCHDU: Convergence failed at  51  side 2    Res =  0.1040E+02
 MRCHDU: Convergence failed at  52  side 2    Res =  0.9686E+01
 MRCHDU: Convergence failed at  53  side 2    Res =  0.9071E+01
 MRCHDU: Convergence failed at  54  side 2    Res =  0.8570E+01
 MRCHDU: Convergence failed at  55  side 2    Res =  0.8259E+01
 MRCHDU: Convergence failed at  56  side 2    Res =  0.7913E+01
 MRCHDU: Convergence failed at  57  side 2    Res =  0.7621E+01
 MRCHDU: Convergence failed at  58  side 2    Res =  0.7360E+01
 MRCHDU: Convergence failed at  59  side 2    Res =  0.7111E+01
 MRCHDU: Convergence failed at  60  side 2    Res =  0.6867E+01
 MRCHDU: Convergence failed at  61  side 2    Res =  0.6626E+01
 MRCHDU: Convergence failed at  62  side 2    Res =  0.6362E+01
 MRCHDU: Convergence failed at  63  side 2    Res =  0.6075E+01
 MRCHDU: Convergence failed at  64  side 2    Res =  0.5750E+01
 MRCHDU: Convergence failed at  65  side 2    Res =  0.5373E+01
 MRCHDU: Convergence failed at  66  side 2    Res =  0.4945E+01
 MRCHDU: Convergence failed at  67  side 2    Res =  0.4472E+01
 MRCHDU: Convergence failed at  68  side 2    Res =  0.3929E+01
 MRCHDU: Convergence failed at  69  side 2    Res =  0.3361E+01
 MRCHDU: Convergence failed at  70  side 2    Res =  0.2807E+01
 MRCHDU: Convergence failed at  71  side 2    Res =  0.2319E+01
 Side 1  free  transition at x/c =  0.7001   70
 Side 2  free  transition at x/c =  0.3453   37

   5   rms: 0.2408E+00   max: -.1014E+01   D at   70  2   RLX: 0.493
       a =  3.000      CL =  1.4709
      Cm = -0.2817     CD =  0.01560   =>   CDf =  0.00497    CDp =  0.01063

 Side 1  free  transition at x/c =  0.7004   70
 Side 2  free  transition at x/c =  0.3559   37

   6   rms: 0.6155E-01   max: -.4846E+00   D at   38  2
       a =  3.000      CL =  1.4834
      Cm = -0.2917     CD =  0.01612   =>   CDf =  0.00688    CDp =  0.00925

 Side 1  free  transition at x/c =  0.7002   70
 Side 2  free  transition at x/c =  0.3389   37

   7   rms: 0.9562E-02   max: -.1167E+00   D at   37  2
       a =  3.000      CL =  1.4811
      Cm = -0.2910     CD =  0.01624   =>   CDf =  0.00671    CDp =  0.00953

 Side 1  free  transition at x/c =  0.7001   70
 Side 2  free  transition at x/c =  0.3399   37

   8   rms: 0.4921E-03   max: -.5617E-02   D at   39  2
       a =  3.000      CL =  1.4811
      Cm = -0.2910     CD =  0.01624   =>   CDf =  0.00670    CDp =  0.00955

 Side 1  free  transition at x/c =  0.7001   70
 Side 2  free  transition at x/c =  0.3398   37

   9   rms: 0.2668E-05   max: -.4380E-04   D at   39  2
       a =  3.000      CL =  1.4811
      Cm = -0.2910     CD =  0.01624   =>   CDf =  0.00670    CDp =  0.00954

 Point added to stored polar  1
 Point written to save file  000217M0.1.log                                  
 Dump file unspecified or not available
 Calculating wake trajectory ...
 Calculating source influence matrix ...

 Solving BL system ...

 Side 1  free  transition at x/c =  0.7001   70
 Side 2  free  transition at x/c =  0.3398   37

   1   rms: 0.2123E+00   max: -.1384E+01   T at   37  2   RLX: 0.361
       a =  4.000      CL =  1.5297
      Cm = -0.2929     CD =  0.01616   =>   CDf =  0.00653    CDp =  0.00963

 Side 1  free  transition at x/c =  0.6970   70
 Side 2  free  transition at x/c =  0.3659   37

   2   rms: 0.1094E+00   max: -.7613E+00   T at   37  2   RLX: 0.657
       a =  4.000      CL =  1.5497
      Cm = -0.2883     CD =  0.01719   =>   CDf =  0.00662    CDp =  0.01057

 Side 1  free  transition at x/c =  0.6870   70
 Side 2  free  transition at x/c =  0.3923   38

   3   rms: 0.5622E-01   max: -.4023E+00   T at   38  2
       a =  4.000      CL =  1.5884
      Cm = -0.2909     CD =  0.01690   =>   CDf =  0.00642    CDp =  0.01048

 Side 1  free  transition at x/c =  0.6860   70
 Side 2  free  transition at x/c =  0.4331   41

   4   rms: 0.2626E-01   max: -.2998E+00   C at   41  2
       a =  4.000      CL =  1.5890
      Cm = -0.2910     CD =  0.01682   =>   CDf =  0.00633    CDp =  0.01049

 Side 1  free  transition at x/c =  0.6860   70
 Side 2  free  transition at x/c =  0.4465   41

   5   rms: 0.6675E-02   max: 0.1173E+00   C at   41  2
       a =  4.000      CL =  1.5888
      Cm = -0.2910     CD =  0.01684   =>   CDf =  0.00621    CDp =  0.01063

 Side 1  free  transition at x/c =  0.6859   70
 Side 2  free  transition at x/c =  0.4415   41

   6   rms: 0.3839E-03   max: -.6044E-02   C at   41  2
       a =  4.000      CL =  1.5887
      Cm = -0.2910     CD =  0.01684   =>   CDf =  0.00623    CDp =  0.01062

 Side 1  free  transition at x/c =  0.6859   70
 Side 2  free  transition at x/c =  0.4416   41

   7   rms: 0.1703E-05   max: 0.7788E-05   T at   72  2
       a =  4.000      CL =  1.5887
      Cm = -0.2910     CD =  0.01684   =>   CDf =  0.00623    CDp =  0.01062

 Point added to stored polar  1
 Point written to save file  000217M0.1.log                                  
 Dump file unspecified or not available
 Calculating wake trajectory ...
 Calculating source influence matrix ...

 Solving BL system ...

 Side 1  free  transition at x/c =  0.6859   70
 Side 2  free  transition at x/c =  0.4416   41

   1   rms: 0.2488E+00   max: -.3032E+01   C at   41  2   RLX: 0.165
       a =  5.000      CL =  1.6094
      Cm = -0.2915     CD =  0.01683   =>   CDf =  0.00604    CDp =  0.01079

 Side 1  free  transition at x/c =  0.6840   71
 Side 2  free  transition at x/c =  0.4689   41

   2   rms: 0.1839E+00   max: -.1703E+01   C at   41  2   RLX: 0.294
       a =  5.000      CL =  1.6422
      Cm = -0.2926     CD =  0.01688   =>   CDf =  0.00620    CDp =  0.01068

 Side 1  free  transition at x/c =  0.6816   71
 Side 2  free  transition at x/c =  0.5252   44

   3   rms: 0.5273E+00   max: -.9645E+01   C at   44  2   RLX: 0.052
       a =  5.000      CL =  1.6463
      Cm = -0.2927     CD =  0.01690   =>   CDf =  0.00604    CDp =  0.01087

 Side 1  free  transition at x/c =  0.6813   71
 Side 2  free  transition at x/c =  0.5260   44

   4   rms: 0.1294E+00   max: -.1154E+01   T at   44  2   RLX: 0.433
       a =  5.000      CL =  1.6808
      Cm = -0.2944     CD =  0.01712   =>   CDf =  0.00614    CDp =  0.01098

 Side 1  free  transition at x/c =  0.6792   70
 Side 2  free  transition at x/c =  0.7198   55

   5   rms: 0.2967E+00   max: -.5222E+01   C at   55  2   RLX: 0.096
       a =  5.000      CL =  1.6790
      Cm = -0.2933     CD =  0.01675   =>   CDf =  0.00568    CDp =  0.01108

 Side 1  free  transition at x/c =  0.6784   70
 Side 2  free  transition at x/c =  0.7334   55

   6   rms: 0.6915E+00   max: -.1090E+02   C at   55  2   RLX: 0.046
       a =  5.000      CL =  1.6786
      Cm = -0.2929     CD =  0.01674   =>   CDf =  0.00554    CDp =  0.01120

 Side 1  free  transition at x/c =  0.6781   70
 Side 2  free  transition at x/c =  0.7341   55

   7   rms: 0.1617E+00   max: -.2819E+01   C at   55  2   RLX: 0.177
       a =  5.000      CL =  1.6808
      Cm = -0.2926     CD =  0.01694   =>   CDf =  0.00538    CDp =  0.01155

 Side 1  free  transition at x/c =  0.6768   71
 Side 2  free  transition at x/c =  0.8060   58

   8   rms: 0.1847E+01   max: -.2574E+02   C at   58  2   RLX: 0.019
       a =  5.000      CL =  1.6796
      Cm = -0.2921     CD =  0.01678   =>   CDf =  0.00557    CDp =  0.01121

 Side 1  free  transition at x/c =  0.6767   70
 Side 2  free  transition at x/c =  0.8325   61

   9   rms: 0.2180E+01   max: -.3028E+02   C at   61  2   RLX: 0.017
       a =  5.000      CL =  1.6782
      Cm = -0.2917     CD =  0.01675   =>   CDf =  0.00534    CDp =  0.01141

 Side 1  free  transition at x/c =  0.6766   70
 Side 2  free  transition at x/c =  0.8652   63

  10   rms: 0.3056E+01   max: -.4154E+02   C at   63  2   RLX: 0.012
       a =  5.000      CL =  1.6766
      Cm = -0.2913     CD =  0.01671   =>   CDf =  0.00531    CDp =  0.01141

 Side 1  free  transition at x/c =  0.6766   70
 Side 2  free  transition at x/c =  0.8900   64

  11   rms: 0.5190E+01   max: -.6447E+02   C at   64  2   RLX: 0.008
       a =  5.000      CL =  1.6756
      Cm = -0.2911     CD =  0.01670   =>   CDf =  0.00529    CDp =  0.01141

 Side 1  free  transition at x/c =  0.6765   70
 Side 2  free  transition at x/c =  0.9103   66

  12   rms: 0.1304E+02   max: -.1629E+03   C at   66  2   RLX: 0.003
       a =  5.000      CL =  1.6754
      Cm = -0.2910     CD =  0.01671   =>   CDf =  0.00528    CDp =  0.01142

 Side 1  free  transition at x/c =  0.6765   70
 Side 2  free  transition at x/c =  0.9270   67

  13   rms: 0.1461E+02   max: -.1832E+03   C at   67  2   RLX: 0.003
       a =  5.000      CL =  1.6752
      Cm = -0.2910     CD =  0.01670   =>   CDf =  0.00528    CDp =  0.01142

 Side 1  free  transition at x/c =  0.6765   70
 Side 2  free  transition at x/c =  0.9418   68

  14   rms: 0.1632E+02   max: -.2129E+03   C at   68  2   RLX: 0.002
       a =  5.000      CL =  1.6750
      Cm = -0.2909     CD =  0.01670   =>   CDf =  0.00528    CDp =  0.01142

 Side 1  free  transition at x/c =  0.6764   70
 Side 2  free  transition at x/c =  0.9548   69

  15   rms: 0.1765E+02   max: -.2490E+03   C at   69  2   RLX: 0.002
       a =  5.000      CL =  1.6749
      Cm = -0.2909     CD =  0.01670   =>   CDf =  0.00528    CDp =  0.01142

 Side 1  free  transition at x/c =  0.6764   70
 Side 2  free  transition at x/c =  0.9664   70

  16   rms: 0.1926E+02   max: -.3072E+03   C at   70  2   RLX: 0.002
       a =  5.000      CL =  1.6748
      Cm = -0.2909     CD =  0.01670   =>   CDf =  0.00528    CDp =  0.01142

 Side 1  free  transition at x/c =  0.6764   70
 Side 2  free  transition at x/c =  0.9764   70

  17   rms: 0.1894E+02   max: -.3007E+03   C at   70  2   RLX: 0.002
       a =  5.000      CL =  1.6746
      Cm = -0.2908     CD =  0.01669   =>   CDf =  0.00528    CDp =  0.01142

 Side 1  free  transition at x/c =  0.6764   70
 Side 2  free  transition at x/c =  0.9854   71

  18   rms: 0.1986E+02   max: -.3827E+03   C at   71  2   RLX: 0.001
       a =  5.000      CL =  1.6746
      Cm = -0.2908     CD =  0.01669   =>   CDf =  0.00528    CDp =  0.01142

 Side 1  free  transition at x/c =  0.6764   70
 Side 2  free  transition at x/c =  0.9934   72

  19   rms: 0.1477E+02   max: -.4006E+03   C at   72  2   RLX: 0.001
       a =  5.000      CL =  1.6743
      Cm = -0.2908     CD =  0.01669   =>   CDf =  0.00528    CDp =  0.01141

 Side 1  free  transition at x/c =  0.6764   70
 Side 2  free  transition at x/c =  0.9955   72

  20   rms: 0.8377E+03   max: -.2273E+05   C at   72  2   RLX: 0.000
       a =  5.000      CL =  1.6744
      Cm = -0.2908     CD =  0.01669   =>   CDf =  0.00528    CDp =  0.01141

 Side 1  free  transition at x/c =  0.6764   70
 Side 2  free  transition at x/c =  0.9971   72

  21   rms: 0.2139E+02   max: 0.5802E+03   C at   72  2   RLX: 0.003
       a =  5.000      CL =  1.6736
      Cm = -0.2906     CD =  0.01669   =>   CDf =  0.00528    CDp =  0.01141

 Side 1  free  transition at x/c =  0.6764   70
 Side 2  free  transition at x/c =  0.9927   72

  22   rms: 0.1135E+02   max: -.3078E+03   C at   72  2   RLX: 0.002
       a =  5.000      CL =  1.6733
      Cm = -0.2905     CD =  0.01669   =>   CDf =  0.00528    CDp =  0.01141

 Side 1  free  transition at x/c =  0.6763   70
 Side 2  free  transition at x/c =  0.9951   72

  23   rms: 0.8961E+02   max: -.2431E+04   C at   72  2   RLX: 0.000
       a =  5.000      CL =  1.6733
      Cm = -0.2905     CD =  0.01669   =>   CDf =  0.00528    CDp =  0.01141

 Side 1  free  transition at x/c =  0.6763   70
 Side 2  free  transition at x/c =  0.9969   72

  24   rms: 0.2891E+02   max: 0.7842E+03   C at   72  2   RLX: 0.002
       a =  5.000      CL =  1.6728
      Cm = -0.2904     CD =  0.01669   =>   CDf =  0.00528    CDp =  0.01141

 Side 1  free  transition at x/c =  0.6763   70
 Side 2  free  transition at x/c =  0.9923   72

  25   rms: 0.9773E+01   max: -.2651E+03   C at   72  2   RLX: 0.002
       a =  5.000      CL =  1.6724
      Cm = -0.2903     CD =  0.01669   =>   CDf =  0.00528    CDp =  0.01141
 VISCAL:  Convergence failed
 Calculating wake trajectory ...
 Calculating source influence matrix ...

 Solving BL system ...

 Side 1  free  transition at x/c =  0.6763   70
 Side 2  free  transition at x/c =  0.9949   72

   1   rms: 0.1618E+03   max: -.4389E+04   C at   72  2   RLX: 0.000
       a =  6.000      CL =  1.6719
      Cm = -0.2903     CD =  0.01669   =>   CDf =  0.00530    CDp =  0.01139

 Side 1  free  transition at x/c =  0.6763   70
 Side 2  free  transition at x/c =  0.9966   72

   2   rms: 0.9856E+02   max: 0.2674E+04   C at   72  2   RLX: 0.001
       a =  6.000      CL =  1.6715
      Cm = -0.2902     CD =  0.01669   =>   CDf =  0.00530    CDp =  0.01139

 Side 1  free  transition at x/c =  0.6763   70
 Side 2  free  transition at x/c =  0.9919   72

   3   rms: 0.2535E+02   max: -.6875E+03   C at   72  2   RLX: 0.001
       a =  6.000      CL =  1.6711
      Cm = -0.2901     CD =  0.01669   =>   CDf =  0.00530    CDp =  0.01139

 Side 1  free  transition at x/c =  0.6763   70
 Side 2  free  transition at x/c =  0.9946   72

   4   rms: 0.1151E+03   max: -.3122E+04   C at   72  2   RLX: 0.000
       a =  6.000      CL =  1.6710
      Cm = -0.2901     CD =  0.01669   =>   CDf =  0.00530    CDp =  0.01139

 Side 1  free  transition at x/c =  0.6763   70
 Side 2  free  transition at x/c =  0.9965   72

   5   rms: 0.1141E+03   max: 0.3094E+04   C at   72  2   RLX: 0.000
       a =  6.000      CL =  1.6706
[...]

 Side 1  free  transition at x/c =  0.6762   70
 Side 2  free  transition at x/c =  0.9945   72

   7   rms: 0.1071E+03   max: -.2907E+04   C at   72  2   RLX: 0.000
       a =  6.000      CL =  1.6702
      Cm = -0.2898     CD =  0.01669   =>   CDf =  0.00530    CDp =  0.01139

 Side 1  free  transition at x/c =  0.6762   70
 Side 2  free  transition at x/c =  0.9964   72

   8   rms: 0.1195E+03   max: 0.3242E+04   C at   72  2   RLX: 0.000
       a =  6.000      CL =  1.6698
      Cm = -0.2897     CD =  0.01669   =>   CDf =  0.00530    CDp =  0.01139

 Side 1  free  transition at x/c =  0.6762   70
 Side 2  free  transition at x/c =  0.9913   72

   9   rms: 0.2243E+02   max: -.6082E+03   C at   72  2   RLX: 0.001
       a =  6.000      CL =  1.6694
      Cm = -0.2896     CD =  0.01669   =>   CDf =  0.00529    CDp =  0.01139

 Side 1  free  transition at x/c =  0.6762   70
 Side 2  free  transition at x/c =  0.9943   72

  10   rms: 0.9750E+02   max: -.2645E+04   C at   72  2   RLX: 0.000
       a =  6.000      CL =  1.6693
      Cm = -0.2896     CD =  0.01669   =>   CDf =  0.00529    CDp =  0.01139

 Side 1  free  transition at x/c =  0.6762   70
 Side 2  free  transition at x/c =  0.9963   72

  11   rms: 0.1300E+03   max: 0.3525E+04   C at   72  2   RLX: 0.000
       a =  6.000      CL =  1.6689
      Cm = -0.2895     CD =  0.01669   =>   CDf =  0.00529    CDp =  0.01140

 Side 1  free  transition at x/c =  0.6762   70
 Side 2  free  transition at x/c =  0.9911   72

  12   rms: 0.2157E+02   max: -.5850E+03   C at   72  2   RLX: 0.001
       a =  6.000      CL =  1.6685
      Cm = -0.2894     CD =  0.01669   =>   CDf =  0.00529    CDp =  0.01139

 Side 1  free  transition at x/c =  0.6761   70
 Side 2  free  transition at x/c =  0.9942   72

  13   rms: 0.9108E+02   max: -.2471E+04   C at   72  2   RLX: 0.000
       a =  6.000      CL =  1.6684
      Cm = -0.2894     CD =  0.01669   =>   CDf =  0.00529    CDp =  0.01139

 Side 1  free  transition at x/c =  0.6761   70
 Side 2  free  transition at x/c =  0.9962   72

  14   rms: 0.1404E+03   max: 0.3809E+04   C at   72  2   RLX: 0.000
       a =  6.000      CL =  1.6680
      Cm = -0.2893     CD =  0.01669   =>   CDf =  0.00529    CDp =  0.01140

 Side 1  free  transition at x/c =  0.6761   70
 Side 2  free  transition at x/c =  0.9909   72

  15   rms: 0.2086E+02   max: -.5658E+03   C at   72  2   RLX: 0.001
       a =  6.000      CL =  1.6676
      Cm = -0.2892     CD =  0.01669   =>   CDf =  0.00529    CDp =  0.01140

 Side 1  free  transition at x/c =  0.6761   70
 Side 2  free  transition at x/c =  0.9941   72

  16   rms: 0.8909E+02   max: -.2417E+04   C at   72  2   RLX: 0.000
       a =  6.000      CL =  1.6675
      Cm = -0.2892     CD =  0.01669   =>   CDf =  0.00529    CDp =  0.01139

 Side 1  free  transition at x/c =  0.6761   70
 Side 2  free  transition at x/c =  0.9962   72

  17   rms: 0.1447E+03   max: 0.3924E+04   C at   72  2   RLX: 0.000
       a =  6.000      CL =  1.6672
      Cm = -0.2891     CD =  0.01669   =>   CDf =  0.00529    CDp =  0.01140

 Side 1  free  transition at x/c =  0.6761   70
 Side 2  free  transition at x/c =  0.9907   71

  18   rms: 0.6042E+02   max: -.1164E+04   C at   71  2   RLX: 0.000
       a =  6.000      CL =  1.6671
      Cm = -0.2890     CD =  0.01669   =>   CDf =  0.00529    CDp =  0.01140

 Side 1  free  transition at x/c =  0.6761   70
 Side 2  free  transition at x/c =  0.9971   72

  19   rms: 0.6103E+02   max: 0.1655E+04   C at   72  2   RLX: 0.001
       a =  6.000      CL =  1.6664
      Cm = -0.2889     CD =  0.01669   =>   CDf =  0.00529    CDp =  0.01140

 Side 1  free  transition at x/c =  0.6760   70
 Side 2  free  transition at x/c =  0.9919   72

  20   rms: 0.3026E+02   max: -.8207E+03   C at   72  2   RLX: 0.001
       a =  6.000      CL =  1.6661
      Cm = -0.2888     CD =  0.01669   =>   CDf =  0.00529    CDp =  0.01140

 Side 1  free  transition at x/c =  0.6760   70
 Side 2  free  transition at x/c =  0.9948   72

  21   rms: 0.2092E+03   max: -.5674E+04   C at   72  2   RLX: 0.000
       a =  6.000      CL =  1.6661
      Cm = -0.2888     CD =  0.01669   =>   CDf =  0.00529    CDp =  0.01139

 Side 1  free  transition at x/c =  0.6760   70
 Side 2  free  transition at x/c =  0.9968   72

  22   rms: 0.8700E+02   max: 0.2360E+04   C at   72  2   RLX: 0.001
       a =  6.000      CL =  1.6656
      Cm = -0.2887     CD =  0.01669   =>   CDf =  0.00529    CDp =  0.01140

 Side 1  free  transition at x/c =  0.6760   70
 Side 2  free  transition at x/c =  0.9914   72

  23   rms: 0.2608E+02   max: -.7074E+03   C at   72  2   RLX: 0.001
       a =  6.000      CL =  1.6653
      Cm = -0.2886     CD =  0.01669   =>   CDf =  0.00529    CDp =  0.01140

 Side 1  free  transition at x/c =  0.6760   70
 Side 2  free  transition at x/c =  0.9945   72

  24   rms: 0.1412E+03   max: -.3832E+04   C at   72  2   RLX: 0.000
       a =  6.000      CL =  1.6653
      Cm = -0.2886     CD =  0.01669   =>   CDf =  0.00529    CDp =  0.01139

 Side 1  free  transition at x/c =  0.6760   70
 Side 2  free  transition at x/c =  0.9966   72

  25   rms: 0.9907E+02   max: 0.2688E+04   C at   72  2   RLX: 0.001
       a =  6.000      CL =  1.6648
      Cm = -0.2884     CD =  0.01669   =>   CDf =  0.00529    CDp =  0.01140
 VISCAL:  Convergence failed
 Calculating wake trajectory ...
 Calculating source influence matrix ...

 Solving BL system ...

 Side 1  free  transition at x/c =  0.6759   70
 Side 2  free  transition at x/c =  0.9909   72

   1   rms: 0.3902E+02   max: -.1058E+04   C at   72  2   RLX: 0.000
       a =  7.000      CL =  1.6634
      Cm = -0.2883     CD =  0.01669   =>   CDf =  0.00531    CDp =  0.01138

 Side 1  free  transition at x/c =  0.6759   70
 Side 2  free  transition at x/c =  0.9942   72

   2   rms: 0.1904E+03   max: -.5164E+04   C at   72  2   RLX: 0.000
       a =  7.000      CL =  1.6634
      Cm = -0.2883     CD =  0.01669   =>   CDf =  0.00531    CDp =  0.01138

 Side 1  free  transition at x/c =  0.6759   70
 Side 2  free  transition at x/c =  0.9965   72

   3   rms: 0.1806E+03   max: 0.4899E+04   C at   72  2   RLX: 0.000
       a =  7.000      CL =  1.6630
      Cm = -0.2882     CD =  0.01669   =>   CDf =  0.00531    CDp =  0.01138

 Side 1  free  transition at x/c =  0.6759   70
 Side 2  free  transition at x/c =  0.9906   71

   4   rms: 0.1062E+03   max: -.2045E+04   C at   71  2   RLX: 0.000
       a =  7.000      CL =  1.6629
      Cm = -0.2882     CD =  0.01669   =>   CDf =  0.00531    CDp =  0.01138

 Side 1  free  transition at x/c =  0.6759   70
 Side 2  free  transition at x/c =  0.9967   72

   5   rms: 0.1505E+03   max: 0.4082E+04   C at   72  2   RLX: 0.000
       a =  7.000      CL =  1.6624
      Cm = -0.2881     CD =  0.01669   =>   CDf =  0.00531    CDp =  0.01138

 Side 1  free  transition at x/c =  0.6759   70
 Side 2  free  transition at x/c =  0.9909   72

   6   rms: 0.4074E+02   max: -.1105E+04   C at   72  2   RLX: 0.000
       a =  7.000      CL =  1.6621
      Cm = -0.2880     CD =  0.01669   =>   CDf =  0.00531    CDp =  0.01138

 Side 1  free  transition at x/c =  0.6758   70
 Side 2  free  transition at x/c =  0.9942   72

   7   rms: 0.2067E+03   max: -.5608E+04   C at   72  2   RLX: 0.000
       a =  7.000      CL =  1.6620
      Cm = -0.2880     CD =  0.01669   =>   CDf =  0.00531    CDp =  0.01138

 Side 1  free  transition at x/c =  0.6758   70
 Side 2  free  transition at x/c =  0.9965   72

   8   rms: 0.1739E+03   max: 0.4718E+04   C at   72  2   RLX: 0.000
       a =  7.000      CL =  1.6616
      Cm = -0.2878     CD =  0.01669   =>   CDf =  0.00531    CDp =  0.01138

 Side 1  free  transition at x/c =  0.6758   70
 Side 2  free  transition at x/c =  0.9905   71

   9   rms: 0.1096E+03   max: -.2112E+04   C at   71  2   RLX: 0.000
       a =  7.000      CL =  1.6615
      Cm = -0.2878     CD =  0.01669   =>   CDf =  0.00531    CDp =  0.01138

 Side 1  free  transition at x/c =  0.6758   70
 Side 2  free  transition at x/c =  0.9964   72

  10   rms: 0.1918E+03   max: 0.5202E+04   C at   72  2   RLX: 0.000
       a =  7.000      CL =  1.6611
      Cm = -0.2877     CD =  0.01669   =>   CDf =  0.00531    CDp =  0.01138

 Side 1  free  transition at x/c =  0.6758   70
 Side 2  free  transition at x/c =  0.9902   71

  11   rms: 0.1118E+03   max: -.2154E+04   C at   71  2   RLX: 0.000
       a =  7.000      CL =  1.6611
      Cm = -0.2877     CD =  0.01669   =>   CDf =  0.00531    CDp =  0.01138

 Side 1  free  transition at x/c =  0.6758   70
 Side 2  free  transition at x/c =  0.9960   72

  12   rms: 0.2694E+03   max: 0.7309E+04   C at   72  2   RLX: 0.000
       a =  7.000      CL =  1.6607
      Cm = -0.2876     CD =  0.01669   =>   CDf =  0.00531    CDp =  0.01138

 Side 1  free  transition at x/c =  0.6758   70
 Side 2  free  transition at x/c =  0.9896   71

  13   rms: 0.1146E+03   max: -.2207E+04   C at   71  2   RLX: 0.000
       a =  7.000      CL =  1.6606
      Cm = -0.2876     CD =  0.01669   =>   CDf =  0.00531    CDp =  0.01138

 Side 1  free  transition at x/c =  0.6758   70
 Side 2  free  transition at x/c =  0.9953   72

  14   rms: 0.1226E+04   max: 0.3327E+05   C at   72  2   RLX: 0.000
       a =  7.000      CL =  1.6604
      Cm = -0.2875     CD =  0.01669   =>   CDf =  0.00531    CDp =  0.01138

 Side 1  free  transition at x/c =  0.6758   70
 Side 2  free  transition at x/c =  0.9884   71

  15   rms: 0.1180E+03   max: -.2273E+04   C at   71  2   RLX: 0.000
       a =  7.000      CL =  1.6604
      Cm = -0.2875     CD =  0.01669   =>   CDf =  0.00531    CDp =  0.01138

 Side 1  free  transition at x/c =  0.6757   70
 Side 2  free  transition at x/c =  0.9941   72

  16   rms: 0.2161E+03   max: -.5862E+04   C at   72  2   RLX: 0.000
       a =  7.000      CL =  1.6604
      Cm = -0.2875     CD =  0.01669   =>   CDf =  0.00531    CDp =  0.01138

 Side 1  free  transition at x/c =  0.6757   70
 Side 2  free  transition at x/c =  0.9965   72

  17   rms: 0.1721E+03   max: 0.4669E+04   C at   72  2   RLX: 0.000
       a =  7.000      CL =  1.6599
      Cm = -0.2874     CD =  0.01669   =>   CDf =  0.00531    CDp =  0.01138

 Side 1  free  transition at x/c =  0.6757   70
 Side 2  free  transition at x/c =  0.9901   71

  18   rms: 0.1161E+03   max: -.2236E+04   C at   71  2   RLX: 0.000
       a =  7.000      CL =  1.6599
      Cm = -0.2874     CD =  0.01669   =>   CDf =  0.00531    CDp =  0.01138

 Side 1  free  transition at x/c =  0.6757   70
 Side 2  free  transition at x/c =  0.9956   72

  19   rms: 0.4431E+03   max: 0.1202E+05   C at   72  2   RLX: 0.000
       a =  7.000      CL =  1.6596
      Cm = -0.2873     CD =  0.01669   =>   CDf =  0.00531    CDp =  0.01138

 Side 1  free  transition at x/c =  0.6757   70
 Side 2  free  transition at x/c =  0.9887   71

  20   rms: 0.1204E+03   max: -.2319E+04   C at   71  2   RLX: 0.000
       a =  7.000      CL =  1.6595
      Cm = -0.2873     CD =  0.01669   =>   CDf =  0.00531    CDp =  0.01138

 Side 1  free  transition at x/c =  0.6757   70
 Side 2  free  transition at x/c =  0.9943   72

  21   rms: 0.2854E+03   max: -.7743E+04   C at   72  2   RLX: 0.000
       a =  7.000      CL =  1.6595
      Cm = -0.2873     CD =  0.01669   =>   CDf =  0.00531    CDp =  0.01138

 Side 1  free  transition at x/c =  0.6757   70
 Side 2  free  transition at x/c =  0.9967   72

  22   rms: 0.1508E+03   max: 0.4092E+04   C at   72  2   RLX: 0.000
       a =  7.000      CL =  1.6590
      Cm = -0.2871     CD =  0.01669   =>   CDf =  0.00531    CDp =  0.01138

 Side 1  free  transition at x/c =  0.6757   70
 Side 2  free  transition at x/c =  0.9903   71

  23   rms: 0.1187E+03   max: -.2286E+04   C at   71  2   RLX: 0.000
       a =  7.000      CL =  1.6590
      Cm = -0.2871     CD =  0.01669   =>   CDf =  0.00531    CDp =  0.01138

 Side 1  free  transition at x/c =  0.6757   70
 Side 2  free  transition at x/c =  0.9956   72

  24   rms: 0.4404E+03   max: 0.1195E+05   C at   72  2   RLX: 0.000
       a =  7.000      CL =  1.6587
      Cm = -0.2871     CD =  0.01669   =>   CDf =  0.00531    CDp =  0.01138

 Side 1  free  transition at x/c =  0.6757   70
 Side 2  free  transition at x/c =  0.9884   71

  25   rms: 0.1243E+03   max: -.2395E+04   C at   71  2   RLX: 0.000
       a =  7.000      CL =  1.6586
      Cm = -0.2870     CD =  0.01669   =>   CDf =  0.00531    CDp =  0.01138
 VISCAL:  Convergence failed
 Calculating wake trajectory ...
 Calculating source influence matrix ...

 Solving BL system ...

 Side 1  free  transition at x/c =  0.6756   70
 Side 2  free  transition at x/c =  0.9939   72

   1   rms: 0.2732E+03   max: -.7411E+04   C at   72  2   RLX: 0.000
       a =  8.000      CL =  1.6572
      Cm = -0.2870     CD =  0.01669   =>   CDf =  0.00533    CDp =  0.01136

 Side 1  free  transition at x/c =  0.6756   70
 Side 2  free  transition at x/c =  0.9964   72

   2   rms: 0.2507E+03   max: 0.6801E+04   C at   72  2   RLX: 0.000
       a =  8.000      CL =  1.6567
      Cm = -0.2869     CD =  0.01669   =>   CDf =  0.00533    CDp =  0.01136

 Side 1  free  transition at x/c =  0.6756   70
 Side 2  free  transition at x/c =  0.9897   71

   3   rms: 0.1725E+03   max: -.3322E+04   C at   71  2   RLX: 0.000
       a =  8.000      CL =  1.6566
      Cm = -0.2869     CD =  0.01669   =>   CDf =  0.00533    CDp =  0.01137

 Side 1  free  transition at x/c =  0.6756   70
 Side 2  free  transition at x/c =  0.9949   72

   4   rms: 0.1966E+04   max: -.5334E+05   C at   72  2   RLX: 0.000
       a =  8.000      CL =  1.6567
      Cm = -0.2869     CD =  0.01669   =>   CDf =  0.00533    CDp =  0.01136

 Side 1  free  transition at x/c =  0.6756   70
 Side 2  free  transition at x/c =  0.9972   72

   5   rms: 0.1421E+03   max: 0.3854E+04   C at   72  2   RLX: 0.000
       a =  8.000      CL =  1.6560
      Cm = -0.2867     CD =  0.01669   =>   CDf =  0.00533    CDp =  0.01136

 Side 1  free  transition at x/c =  0.6756   70
 Side 2  free  transition at x/c =  0.9905   71

   6   rms: 0.1721E+03   max: -.3316E+04   C at   71  2   RLX: 0.000
       a =  8.000      CL =  1.6560
      Cm = -0.2867     CD =  0.01669   =>   CDf =  0.00533    CDp =  0.01137

 Side 1  free  transition at x/c =  0.6756   70
 Side 2  free  transition at x/c =  0.9956   72

   7   rms: 0.6352E+03   max: 0.1723E+05   C at   72  2   RLX: 0.000
       a =  8.000      CL =  1.6557
      Cm = -0.2866     CD =  0.01669   =>   CDf =  0.00533    CDp =  0.01137

 Side 1  free  transition at x/c =  0.6756   70
 Side 2  free  transition at x/c =  0.9880   71

   8   rms: 0.1831E+03   max: -.3527E+04   C at   71  2   RLX: 0.000
       a =  8.000      CL =  1.6556
      Cm = -0.2866     CD =  0.01669   =>   CDf =  0.00533    CDp =  0.01137

 Side 1  free  transition at x/c =  0.6755   70
 Side 2  free  transition at x/c =  0.9932   72

   9   rms: 0.1821E+03   max: -.4941E+04   C at   72  2   RLX: 0.000
       a =  8.000      CL =  1.6556
      Cm = -0.2866     CD =  0.01669   =>   CDf =  0.00533    CDp =  0.01136

 Side 1  free  transition at x/c =  0.6755   70
 Side 2  free  transition at x/c =  0.9960   72

  10   rms: 0.3473E+03   max: 0.9423E+04   C at   72  2   RLX: 0.000
       a =  8.000      CL =  1.6552
      Cm = -0.2865     CD =  0.01669   =>   CDf =  0.00533    CDp =  0.01137

 Side 1  free  transition at x/c =  0.6755   70
 Side 2  free  transition at x/c =  0.9886   71

  11   rms: 0.1836E+03   max: -.3537E+04   C at   71  2   RLX: 0.000
       a =  8.000      CL =  1.6552
      Cm = -0.2865     CD =  0.01669   =>   CDf =  0.00533    CDp =  0.01137

 Side 1  free  transition at x/c =  0.6755   70
 Side 2  free  transition at x/c =  0.9937   72

  12   rms: 0.2652E+03   max: -.7195E+04   C at   72  2   RLX: 0.000
       a =  8.000      CL =  1.6552
      Cm = -0.2865     CD =  0.01669   =>   CDf =  0.00533    CDp =  0.01136

 MRCHDU: Convergence failed at  72  side 2    Res =  0.5105E-03
 Side 1  free  transition at x/c =  0.6755   70
 Side 2  free  transition at x/c =  0.9964   72

  13   rms: 0.2550E+03   max: 0.6919E+04   C at   72  2   RLX: 0.000
       a =  8.000      CL =  1.6547
      Cm = -0.2864     CD =  0.01669   =>   CDf =  0.00533    CDp =  0.01137

 Side 1  free  transition at x/c =  0.6755   70
 Side 2  free  transition at x/c =  0.9891   71

  14   rms: 0.1846E+03   max: -.3556E+04   C at   71  2   RLX: 0.000
       a =  8.000      CL =  1.6546
      Cm = -0.2863     CD =  0.01669   =>   CDf =  0.00533    CDp =  0.01137

 Side 1  free  transition at x/c =  0.6755   70
 Side 2  free  transition at x/c =  0.9941   72

  15   rms: 0.4009E+03   max: -.1088E+05   C at   72  2   RLX: 0.000
       a =  8.000      CL =  1.6547
      Cm = -0.2863     CD =  0.01669   =>   CDf =  0.00533    CDp =  0.01136

 Side 1  free  transition at x/c =  0.6755   70
 Side 2  free  transition at x/c =  0.9967   72

  16   rms: 0.2138E+03   max: 0.5799E+04   C at   72  2   RLX: 0.000
       a =  8.000      CL =  1.6541
      Cm = -0.2862     CD =  0.01669   =>   CDf =  0.00532    CDp =  0.01137

 Side 1  free  transition at x/c =  0.6755   70
 Side 2  free  transition at x/c =  0.9894   71

  17   rms: 0.1865E+03   max: -.3593E+04   C at   71  2   RLX: 0.000
       a =  8.000      CL =  1.6541
      Cm = -0.2862     CD =  0.01669   =>   CDf =  0.00533    CDp =  0.01137

 Side 1  free  transition at x/c =  0.6755   70
 Side 2  free  transition at x/c =  0.9942   72

  18   rms: 0.5105E+03   max: -.1385E+05   C at   72  2   RLX: 0.000
       a =  8.000      CL =  1.6541
      Cm = -0.2862     CD =  0.01669   =>   CDf =  0.00533    CDp =  0.01136

 Side 1  free  transition at x/c =  0.6755   70
 Side 2  free  transition at x/c =  0.9969   72

  19   rms: 0.1608E+03   max: 0.4362E+04   C at   72  2   RLX: 0.000
       a =  8.000      CL =  1.6535
      Cm = -0.2860     CD =  0.01669   =>   CDf =  0.00532    CDp =  0.01137

 Side 1  free  transition at x/c =  0.6754   70
 Side 2  free  transition at x/c =  0.9894   71

  20   rms: 0.1899E+03   max: -.3658E+04   C at   71  2   RLX: 0.000
       a =  8.000      CL =  1.6535
      Cm = -0.286Got result {'DD': 0.01569, 'Dmin': 0.01592, 'LL': -1.3642}
Completed successfully in 2.00 seconds. [{'DD': 0.01569, 'Dmin': 0.01592, 'LL': -1.3642}]
0     CD =  0.01669   =>   CDf =  0.00533    CDp =  0.01137

 Side 1  free  transition at x/c =  0.6754   70
 Side 2  free  transition at x/c =  0.9941   72

  21   rms: 0.4775E+03   max: -.1295E+05   C at   72  2   RLX: 0.000
       a =  8.000      CL =  1.6535
      Cm = -0.2860     CD =  0.01669   =>   CDf =  0.00532    CDp =  0.01137

 Side 1  free  transition at x/c =  0.6754   70
 Side 2  free  transition at x/c =  0.9969   72

  22   rms: 0.1661E+03   max: 0.4505E+04   C at   72  2   RLX: 0.000
       a =  8.000      CL =  1.6529
      Cm = -0.2859     CD =  0.01669   =>   CDf =  0.00532    CDp =  0.01137

 Side 1  free  transition at x/c =  0.6754   70
 Side 2  free  transition at x/c =  0.9891   71

  23   rms: 0.1945E+03   max: -.3747E+04   C at   71  2   RLX: 0.000
       a =  8.000      CL =  1.6528
      Cm = -0.2858     CD =  0.01669   =>   CDf =  0.00533    CDp =  0.01137

 Side 1  free  transition at x/c =  0.6754   70
 Side 2  free  transition at x/c =  0.9938   72

  24   rms: 0.3409E+03   max: -.9247E+04   C at   72  2   RLX: 0.000
       a =  8.000      CL =  1.6529
      Cm = -0.2859     CD =  0.01669   =>   CDf =  0.00532    CDp =  0.01137

 Side 1  free  transition at x/c =  0.6754   70
 Side 2  free  transition at x/c =  0.9967   72

  25   rms: 0.1777E+03   max: 0.4821E+04   C at   72  2   RLX: 0.000
       a =  8.000      CL =  1.6523
      Cm = -0.2857     CD =  0.01669   =>   CDf =  0.00532    CDp =  0.01137
 VISCAL:  Convergence failed

 Sequence halted since previous  4 points did not converge
 Last-converged  alpha =   4.000    CL =   1.58873

.OPERva   c>  
 XFOIL   c>  
