  
       XFOIL         Version 6.99
  
 Calculated polar for: 000003                                          
  
 1 1 Reynolds number fixed          Mach number fixed         
  
 xtrf =   1.000 (top)        1.000 (bottom)  
 Mach =   0.100     Re =     0.001 e 6     Ncrit =   9.000  9.000
  
   alpha    CL        CD       CDp       CM     Top_Xtr  Bot_Xtr  Top_Itr  Bot_Itr
  ------ -------- --------- --------- -------- -------- -------- -------- --------
   2.000   0.1656   0.14922   0.00924  -0.0141   1.0000   1.0000   1.0000 101.0000
   3.000   0.2523   0.15064   0.01634  -0.0145   1.0000   1.0000   1.0000 101.0000
   4.000   0.3365   0.15323   0.02293  -0.0148   1.0000   1.0000   1.0000 101.0000
   5.000   0.4153   0.15653   0.03178  -0.0155   1.0000   1.0000   1.0000 101.0000
   6.000   0.4853   0.16018   0.04336  -0.0168   1.0000   1.0000   1.0000 101.0000
   7.000   0.5426   0.16391   0.05590  -0.0191   1.0000   1.0000   1.0000 101.0000
   8.000   0.5870   0.16892   0.06972  -0.0225   1.0000   1.0000   1.0000 101.0000
   9.000   0.6192   0.17701   0.08437  -0.0270   1.0000   1.0000   1.0000 101.0000
  10.000   0.6445   0.18687   0.09980  -0.0326   1.0000   1.0000   1.0000 101.0000
  11.000   0.6687   0.19755   0.11634  -0.0390   1.0000   1.0000   1.0000 101.0000
  12.000   0.6953   0.20855   0.13493  -0.0458   1.0000   1.0000   1.0000 101.0000
  13.000   0.7235   0.21960   0.15416  -0.0530   1.0000   1.0000   1.0000 101.0000
  14.000   0.7534   0.23076   0.17478  -0.0605   1.0000   1.0000   1.0000 101.0000
  15.000   0.7847   0.24196   0.19685  -0.0681   1.0000   1.0000   1.0000 101.0000
