  
       XFOIL         Version 6.99
  
 Calculated polar for: 000004                                          
  
 1 1 Reynolds number fixed          Mach number fixed         
  
 xtrf =   1.000 (top)        1.000 (bottom)  
 Mach =   0.100     Re =     0.001 e 6     Ncrit =   9.000  9.000
  
   alpha    CL        CD       CDp       CM     Top_Xtr  Bot_Xtr  Top_Itr  Bot_Itr
  ------ -------- --------- --------- -------- -------- -------- -------- --------
   2.000   0.2430   0.14730   0.00694  -0.0346   1.0000   1.0000   1.0000 101.0000
   3.000   0.3302   0.14951   0.01056  -0.0335   1.0000   1.0000   1.0000 101.0000
   4.000   0.4146   0.15244   0.01699  -0.0324   1.0000   1.0000   1.0000 101.0000
   5.000   0.4942   0.15595   0.02622  -0.0316   1.0000   1.0000   1.0000 101.0000
   6.000   0.5665   0.15983   0.03808  -0.0313   1.0000   1.0000   1.0000 101.0000
   7.000   0.6246   0.16313   0.05215  -0.0330   1.0000   1.0000   1.0000 101.0000
   8.000   0.6778   0.16889   0.06859  -0.0351   1.0000   1.0000   1.0000 101.0000
   9.000   0.7191   0.17717   0.08538  -0.0388   1.0000   1.0000   1.0000 101.0000
  10.000   0.7498   0.18739   0.10316  -0.0441   1.0000   1.0000   1.0000 101.0000
  11.000   0.7741   0.19882   0.12179  -0.0506   1.0000   1.0000   1.0000 101.0000
  12.000   0.7979   0.21087   0.14160  -0.0579   1.0000   1.0000   1.0000 101.0000
  13.000   0.8242   0.22308   0.16325  -0.0655   1.0000   1.0000   1.0000 101.0000
  14.000   0.8518   0.23515   0.18583  -0.0735   1.0000   1.0000   1.0000 101.0000
  15.000   0.8810   0.24721   0.20986  -0.0816   1.0000   1.0000   1.0000 101.0000
