  
       XFOIL         Version 6.99
  
 Calculated polar for: 000007                                          
  
 1 1 Reynolds number fixed          Mach number fixed         
  
 xtrf =   1.000 (top)        1.000 (bottom)  
 Mach =   0.100     Re =     0.001 e 6     Ncrit =   9.000  9.000
  
   alpha    CL        CD       CDp       CM     Top_Xtr  Bot_Xtr  Top_Itr  Bot_Itr
  ------ -------- --------- --------- -------- -------- -------- -------- --------
   2.000   0.1737   0.15372   0.00691  -0.0067   1.0000   1.0000   1.0000 101.0000
   3.000   0.2529   0.15572   0.01070  -0.0040   1.0000   1.0000   1.0000 101.0000
   4.000   0.3290   0.15848   0.01704  -0.0015   1.0000   1.0000   1.0000 101.0000
   5.000   0.3991   0.16191   0.02582   0.0006   1.0000   1.0000   1.0000 101.0000
   6.000   0.4835   0.16175   0.04017  -0.0001   1.0000   1.0000   1.0000 101.0000
   7.000   0.5436   0.16570   0.05354   0.0001   1.0000   1.0000   1.0000 101.0000
   8.000   0.5916   0.17118   0.06941  -0.0011   1.0000   1.0000   1.0000 101.0000
   9.000   0.6256   0.17901   0.08522  -0.0038   1.0000   1.0000   1.0000 101.0000
  10.000   0.6466   0.18835   0.10125  -0.0073   1.0000   1.0000   1.0000 101.0000
  11.000   0.6623   0.19861   0.11770  -0.0117   1.0000   1.0000   1.0000 101.0000
  12.000   0.6792   0.20919   0.13514  -0.0168   1.0000   1.0000   1.0000 101.0000
  13.000   0.6995   0.21972   0.15425  -0.0220   1.0000   1.0000   1.0000 101.0000
  14.000   0.7215   0.23009   0.17415  -0.0277   1.0000   1.0000   1.0000 101.0000
  15.000   0.7452   0.24038   0.19534  -0.0337   1.0000   1.0000   1.0000 101.0000
