  
       XFOIL         Version 6.99
  
 Calculated polar for: 000008                                          
  
 1 1 Reynolds number fixed          Mach number fixed         
  
 xtrf =   1.000 (top)        1.000 (bottom)  
 Mach =   0.100     Re =     0.001 e 6     Ncrit =   9.000  9.000
  
   alpha    CL        CD       CDp       CM     Top_Xtr  Bot_Xtr  Top_Itr  Bot_Itr
  ------ -------- --------- --------- -------- -------- -------- -------- --------
   2.000   0.2569   0.14927   0.00743  -0.0252   1.0000   1.0000   1.0000 101.0000
   3.000   0.3362   0.15176   0.01002  -0.0244   1.0000   1.0000   1.0000 101.0000
   4.000   0.4109   0.15504   0.01499  -0.0233   1.0000   1.0000   1.0000 101.0000
   5.000   0.4776   0.15900   0.02229  -0.0223   1.0000   1.0000   1.0000 101.0000
   6.000   0.5322   0.16337   0.03162  -0.0215   1.0000   1.0000   1.0000 101.0000
   7.000   0.5747   0.16940   0.04262  -0.0214   1.0000   1.0000   1.0000 101.0000
