  
       XFOIL         Version 6.99
  
 Calculated polar for: 000001                                          
  
 1 1 Reynolds number fixed          Mach number fixed         
  
 xtrf =   1.000 (top)        1.000 (bottom)  
 Mach =   0.100     Re =     0.001 e 6     Ncrit =   9.000  9.000
  
   alpha    CL        CD       CDp       CM     Top_Xtr  Bot_Xtr  Top_Itr  Bot_Itr
  ------ -------- --------- --------- -------- -------- -------- -------- --------
   2.000   0.2398   0.15001   0.01076  -0.0113   1.0000   1.0000   1.0000 101.0000
   3.000   0.3234   0.15212   0.01628  -0.0117   1.0000   1.0000   1.0000 101.0000
   4.000   0.4002   0.15493   0.02263  -0.0127   1.0000   1.0000   1.0000 101.0000
   5.000   0.4704   0.15840   0.03026  -0.0138   1.0000   1.0000   1.0000 101.0000
   6.000   0.5294   0.16192   0.04074  -0.0156   1.0000   1.0000   1.0000 101.0000
   7.000   0.5756   0.16582   0.05159  -0.0181   1.0000   1.0000   1.0000 101.0000
   8.000   0.6112   0.17287   0.06388  -0.0215   1.0000   1.0000   1.0000 101.0000
   9.000   0.6396   0.18193   0.07746  -0.0259   1.0000   1.0000   1.0000 101.0000
  10.000   0.6654   0.19210   0.09242  -0.0311   1.0000   1.0000   1.0000 101.0000
  11.000   0.6919   0.20286   0.10894  -0.0371   1.0000   1.0000   1.0000 101.0000
  12.000   0.7199   0.21394   0.12712  -0.0436   1.0000   1.0000   1.0000 101.0000
  13.000   0.7499   0.22463   0.14798  -0.0503   1.0000   1.0000   1.0000 101.0000
  14.000   0.7802   0.23597   0.16914  -0.0575   1.0000   1.0000   1.0000 101.0000
  15.000   0.8121   0.24747   0.19241  -0.0649   1.0000   1.0000   1.0000 101.0000
