  
       XFOIL         Version 6.99
  
 Calculated polar for: 000001                                          
  
 1 1 Reynolds number fixed          Mach number fixed         
  
 xtrf =   1.000 (top)        1.000 (bottom)  
 Mach =   0.100     Re =     0.001 e 6     Ncrit =   9.000  9.000
  
   alpha    CL        CD       CDp       CM     Top_Xtr  Bot_Xtr  Top_Itr  Bot_Itr
  ------ -------- --------- --------- -------- -------- -------- -------- --------
   2.000   0.2040   0.14662   0.00605  -0.0129   1.0000   1.0000   1.0000 101.0000
   3.000   0.2931   0.14895   0.01076  -0.0122   1.0000   1.0000   1.0000 101.0000
   4.000   0.3792   0.15210   0.01842  -0.0118   1.0000   1.0000   1.0000 101.0000
   5.000   0.4592   0.15590   0.02890  -0.0120   1.0000   1.0000   1.0000 101.0000
   6.000   0.5295   0.16006   0.04182  -0.0130   1.0000   1.0000   1.0000 101.0000
