  
       XFOIL         Version 6.97
  
 Calculated polar for: 000027                                          
  
 1 1 Reynolds number fixed          Mach number fixed         
  
 xtrf =   1.000 (top)        1.000 (bottom)  
 Mach =   0.100     Re =     0.300 e 6     Ncrit =   9.000
  
   alpha    CL        CD       CDp       CM     Top_Xtr  Bot_Xtr
  ------ -------- --------- --------- -------- -------- --------
   2.500   0.8595   0.01212   0.00459  -0.1036   0.6034   0.3164
   3.000   0.9109   0.01220   0.00465  -0.1030   0.5954   0.3488
   3.500   0.9607   0.01232   0.00493  -0.1022   0.5868   0.3877
   4.000   1.0126   0.01236   0.00510  -0.1017   0.5792   0.4616
   5.000   1.2266   0.01232   0.00528  -0.1258   0.4044   1.0001
   6.500   1.3149   0.01877   0.01028  -0.1147   0.0559   1.0001
   8.500   1.3210   0.02949   0.02148  -0.0831   0.0047   1.0001
