  
       XFOIL         Version 6.97
  
 Calculated polar for: 000122                                          
  
 1 1 Reynolds number fixed          Mach number fixed         
  
 xtrf =   1.000 (top)        1.000 (bottom)  
 Mach =   0.100     Re =     0.300 e 6     Ncrit =   9.000
  
   alpha    CL        CD       CDp       CM     Top_Xtr  Bot_Xtr
  ------ -------- --------- --------- -------- -------- --------
   2.000   0.2826   0.00875   0.00208  -0.0126   0.2037   1.0000
   3.000   0.3666   0.01196   0.00463  -0.0068   0.0268   1.0000
   4.000   0.4557   0.01973   0.01320   0.0002   0.0235   1.0000
   6.000   0.5941   0.04805   0.04450   0.0128   0.0301   1.0000
