  
       XFOIL         Version 6.97
  
 Calculated polar for: 000332                                          
  
 1 1 Reynolds number fixed          Mach number fixed         
  
 xtrf =   1.000 (top)        1.000 (bottom)  
 Mach =   0.100     Re =     0.300 e 6     Ncrit =   9.000
  
   alpha    CL        CD       CDp       CM     Top_Xtr  Bot_Xtr
  ------ -------- --------- --------- -------- -------- --------
   2.000   0.6344   0.04565   0.03989  -0.0518   0.3137   0.1187
   4.000   0.9016   0.03607   0.02994  -0.0687   0.2819   0.1380
