  
       XFOIL         Version 6.97
  
 Calculated polar for: 000787                                          
  
 1 1 Reynolds number fixed          Mach number fixed         
  
 xtrf =   1.000 (top)        1.000 (bottom)  
 Mach =   0.100     Re =     0.300 e 6     Ncrit =   9.000
  
   alpha    CL        CD       CDp       CM     Top_Xtr  Bot_Xtr
  ------ -------- --------- --------- -------- -------- --------
   2.000   0.6607   0.01674   0.01038  -0.1051   0.9246   0.1359
   2.500   0.7318   0.01594   0.00975  -0.1079   0.9152   0.1584
   3.000   0.8026   0.01473   0.00876  -0.1103   0.9022   0.1830
   3.500   0.8737   0.01277   0.00708  -0.1117   0.8815   0.2109
   4.000   0.9276   0.01112   0.00570  -0.1094   0.8428   0.2417
   4.500   1.0165   0.01076   0.00419  -0.1148   0.5486   0.3386
