  
       XFOIL         Version 6.97
  
 Calculated polar for: 000871                                          
  
 1 1 Reynolds number fixed          Mach number fixed         
  
 xtrf =   1.000 (top)        1.000 (bottom)  
 Mach =   0.100     Re =     0.300 e 6     Ncrit =   9.000
  
   alpha    CL        CD       CDp       CM     Top_Xtr  Bot_Xtr
  ------ -------- --------- --------- -------- -------- --------
   2.000   0.5896   0.04512   0.03824  -0.0583   0.2055   0.1064
   2.500   0.6255   0.04342   0.03658  -0.0552   0.2001   0.1089
   4.000   0.7660   0.03844   0.03121  -0.0513   0.1858   0.1205
   5.000   0.8642   0.03605   0.02856  -0.0485   0.1771   0.1298
