  
       XFOIL         Version 6.97
  
 Calculated polar for: 000866                                          
  
 1 1 Reynolds number fixed          Mach number fixed         
  
 xtrf =   1.000 (top)        1.000 (bottom)  
 Mach =   0.100     Re =     0.300 e 6     Ncrit =   9.000
  
   alpha    CL        CD       CDp       CM     Top_Xtr  Bot_Xtr
  ------ -------- --------- --------- -------- -------- --------
   2.500   0.4182   0.02065   0.01571  -0.0529   0.8204   0.9717
   3.500   0.6631   0.01686   0.01203  -0.0797   0.8121   1.0001
