  
       XFOIL         Version 6.97
  
 Calculated polar for: 000906                                          
  
 1 1 Reynolds number fixed          Mach number fixed         
  
 xtrf =   1.000 (top)        1.000 (bottom)  
 Mach =   0.100     Re =     0.300 e 6     Ncrit =   9.000
  
   alpha    CL        CD       CDp       CM     Top_Xtr  Bot_Xtr
  ------ -------- --------- --------- -------- -------- --------
   2.000   0.6888   0.01114   0.00460  -0.0753   0.8107   0.1495
   2.500   0.7409   0.01075   0.00419  -0.0740   0.7793   0.1750
   3.000   0.7866   0.01056   0.00393  -0.0714   0.7370   0.2035
   3.500   0.8273   0.01056   0.00379  -0.0678   0.6845   0.2418
