  
       XFOIL         Version 6.97
  
 Calculated polar for: 001067                                          
  
 1 1 Reynolds number fixed          Mach number fixed         
  
 xtrf =   1.000 (top)        1.000 (bottom)  
 Mach =   0.100     Re =     0.300 e 6     Ncrit =   9.000
  
   alpha    CL        CD       CDp       CM     Top_Xtr  Bot_Xtr
  ------ -------- --------- --------- -------- -------- --------
   2.000   0.3602   0.01169   0.00383  -0.0083   0.4330   0.6267
   4.000   0.5609   0.01314   0.00535  -0.0043   0.3616   0.7090
   4.500   0.6137   0.01337   0.00565  -0.0041   0.3432   0.7176
   5.000   0.6735   0.01364   0.00597  -0.0056   0.3218   0.7268
