  
       XFOIL         Version 6.97
  
 Calculated polar for: 001340                                          
  
 1 1 Reynolds number fixed          Mach number fixed         
  
 xtrf =   1.000 (top)        1.000 (bottom)  
 Mach =   0.040     Re =     0.300 e 6     Ncrit =   9.000
  
   alpha    CL        CD       CDp       CM     Top_Xtr  Bot_Xtr
  ------ -------- --------- --------- -------- -------- --------
   3.500  -0.4047   0.08392   0.07676   0.0073   0.4701   0.5145
   4.000  -0.3432   0.08432   0.07722   0.0048   0.4692   0.5248
