  
       XFOIL         Version 6.97
  
 Calculated polar for: 001364                                          
  
 1 1 Reynolds number fixed          Mach number fixed         
  
 xtrf =   1.000 (top)        1.000 (bottom)  
 Mach =   0.040     Re =     0.300 e 6     Ncrit =   9.000
  
   alpha    CL        CD       CDp       CM     Top_Xtr  Bot_Xtr
  ------ -------- --------- --------- -------- -------- --------
   2.500   1.3388   0.04719   0.03924  -0.2694   0.5195   0.1058
   3.000   1.4089   0.04654   0.03843  -0.2737   0.5175   0.1166
   4.000   1.2394   0.07009   0.06259  -0.2468   0.4993   0.1157
   4.500   1.3360   0.06639   0.05874  -0.2533   0.4997   0.1300
