  
       XFOIL         Version 6.97
  
 Calculated polar for: 001320                                          
  
 1 1 Reynolds number fixed          Mach number fixed         
  
 xtrf =   1.000 (top)        1.000 (bottom)  
 Mach =   0.040     Re =     0.300 e 6     Ncrit =   9.000
  
   alpha    CL        CD       CDp       CM     Top_Xtr  Bot_Xtr
  ------ -------- --------- --------- -------- -------- --------
   2.500  -0.1951   0.03627   0.03116   0.0376   0.8037   0.8666
   3.000  -0.1225   0.03536   0.03028   0.0359   0.7901   0.8807
   3.500  -0.0441   0.03448   0.02943   0.0328   0.7828   0.8943
   4.000   0.0104   0.03386   0.02885   0.0338   0.7717   0.9063
   4.500   0.0980   0.03219   0.02720   0.0288   0.7671   0.9137
   5.000   0.1643   0.03076   0.02582   0.0275   0.7564   0.9208
