  
       XFOIL         Version 6.97
  
 Calculated polar for: 001368                                          
  
 1 1 Reynolds number fixed          Mach number fixed         
  
 xtrf =   1.000 (top)        1.000 (bottom)  
 Mach =   0.040     Re =     0.300 e 6     Ncrit =   9.000
  
   alpha    CL        CD       CDp       CM     Top_Xtr  Bot_Xtr
  ------ -------- --------- --------- -------- -------- --------
   2.500  -0.1654   0.05102   0.04473  -0.0235   0.7967   0.5776
   3.000  -0.0893   0.05038   0.04419  -0.0274   0.7834   0.5814
   3.500  -0.0299   0.05024   0.04416  -0.0291   0.7718   0.5853
   4.500   0.1345   0.04761   0.04161  -0.0387   0.7488   0.5962
   5.000   0.2240   0.04583   0.03995  -0.0441   0.7432   0.6007
   5.500   0.3159   0.04414   0.03832  -0.0505   0.7407   0.6070
   6.000   0.3754   0.04291   0.03720  -0.0516   0.7288   0.6116
