  
       XFOIL         Version 6.97
  
 Calculated polar for: 001358                                          
  
 1 1 Reynolds number fixed          Mach number fixed         
  
 xtrf =   1.000 (top)        1.000 (bottom)  
 Mach =   0.040     Re =     0.300 e 6     Ncrit =   9.000
  
   alpha    CL        CD       CDp       CM     Top_Xtr  Bot_Xtr
  ------ -------- --------- --------- -------- -------- --------
   2.500   0.3607   0.02421   0.01813   0.0057   0.5895   0.8214
   3.000   0.4585   0.02236   0.01618  -0.0004   0.5911   0.8263
   4.500   0.5946   0.02374   0.01756  -0.0001   0.5772   0.8510
   6.000   0.7298   0.02508   0.01899   0.0001   0.5625   0.8769
