  
       XFOIL         Version 6.97
  
 Calculated polar for: 001492                                          
  
 1 1 Reynolds number fixed          Mach number fixed         
  
 xtrf =   1.000 (top)        1.000 (bottom)  
 Mach =   0.100     Re =     0.300 e 6     Ncrit =   9.000
  
   alpha    CL        CD       CDp       CM     Top_Xtr  Bot_Xtr
  ------ -------- --------- --------- -------- -------- --------
   0.600   0.6718   0.04834   0.04276  -0.0569   0.4075   0.1167
   0.800   0.6878   0.04800   0.04238  -0.0565   0.4065   0.1177
   1.000   0.6970   0.04807   0.04256  -0.0560   0.4051   0.1196
   1.800   0.5987   0.05589   0.05094  -0.0485   0.3938   0.1211
   2.200   0.6542   0.05244   0.04719  -0.0497   0.3930   0.1268
   2.400   0.6850   0.05073   0.04539  -0.0497   0.3928   0.1279
   2.600   0.7053   0.05009   0.04469  -0.0494   0.3923   0.1293
