  
       XFOIL         Version 6.97
  
 Calculated polar for: 001419                                          
  
 1 1 Reynolds number fixed          Mach number fixed         
  
 xtrf =   1.000 (top)        1.000 (bottom)  
 Mach =   0.040     Re =     0.300 e 6     Ncrit =   9.000
  
   alpha    CL        CD       CDp       CM     Top_Xtr  Bot_Xtr
  ------ -------- --------- --------- -------- -------- --------
   2.000   0.6893   0.02263   0.01325  -0.0203   0.3793   0.2006
   2.500   0.7324   0.02266   0.01333  -0.0180   0.3722   0.2117
   3.000   0.7723   0.02260   0.01332  -0.0152   0.3651   0.2226
   3.500   0.8099   0.02263   0.01336  -0.0120   0.3588   0.2361
   4.000   0.8433   0.02254   0.01343  -0.0080   0.3525   0.2537
   4.500   0.8722   0.02242   0.01330  -0.0032   0.3463   0.2771
