  
       XFOIL         Version 6.97
  
 Calculated polar for: 001460                                          
  
 1 1 Reynolds number fixed          Mach number fixed         
  
 xtrf =   1.000 (top)        1.000 (bottom)  
 Mach =   0.100     Re =     0.300 e 6     Ncrit =   9.000
  
   alpha    CL        CD       CDp       CM     Top_Xtr  Bot_Xtr
  ------ -------- --------- --------- -------- -------- --------
   3.000   1.0212   0.02576   0.02004  -0.2054   0.6547   0.3300
   3.500   1.0008   0.02803   0.02258  -0.1911   0.6422   0.3289
