  
       XFOIL         Version 6.97
  
 Calculated polar for: 001491                                          
  
 1 1 Reynolds number fixed          Mach number fixed         
  
 xtrf =   1.000 (top)        1.000 (bottom)  
 Mach =   0.100     Re =     0.300 e 6     Ncrit =   9.000
  
   alpha    CL        CD       CDp       CM     Top_Xtr  Bot_Xtr
  ------ -------- --------- --------- -------- -------- --------
   0.200   1.0678   0.02321   0.01726  -0.2527   0.6953   0.1730
   0.400   1.0780   0.02345   0.01754  -0.2506   0.6916   0.1744
   0.600   1.1032   0.02322   0.01726  -0.2511   0.6895   0.1768
   0.800   1.1355   0.02259   0.01640  -0.2532   0.6879   0.1806
   1.000   1.1664   0.02217   0.01593  -0.2546   0.6865   0.1829
   1.200   1.1980   0.02201   0.01580  -0.2558   0.6852   0.1849
   1.400   1.2127   0.02223   0.01605  -0.2544   0.6822   0.1867
   1.600   1.2120   0.02268   0.01657  -0.2505   0.6772   0.1883
   1.800   1.2393   0.02232   0.01609  -0.2513   0.6746   0.1918
   2.000   1.2751   0.02161   0.01526  -0.2533   0.6722   0.1950
   2.200   1.3159   0.02102   0.01464  -0.2559   0.6699   0.1974
   2.400   1.3063   0.02151   0.01522  -0.2504   0.6637   0.1984
   2.600   1.3237   0.02134   0.01504  -0.2492   0.6598   0.2009
   2.800   1.3578   0.02095   0.01450  -0.2510   0.6574   0.2050
   3.000   1.3952   0.02052   0.01403  -0.2533   0.6552   0.2083
   3.200   1.3837   0.02103   0.01464  -0.2475   0.6500   0.2092
   3.400   1.3941   0.02120   0.01485  -0.2453   0.6458   0.2110
   3.600   1.4219   0.02096   0.01456  -0.2459   0.6429   0.2142
   3.800   1.4573   0.02056   0.01401  -0.2479   0.6406   0.2183
   4.000   1.4581   0.02103   0.01453  -0.2443   0.6358   0.2201
   4.200   1.4660   0.02138   0.01494  -0.2419   0.6312   0.2216
   4.400   1.4898   0.02128   0.01487  -0.2419   0.6279   0.2246
   4.600   1.5218   0.02095   0.01446  -0.2431   0.6252   0.2286
   4.800   1.5155   0.02176   0.01531  -0.2386   0.6193   0.2306
   5.000   1.5285   0.02191   0.01544  -0.2371   0.6142   0.2333
   5.200   1.5548   0.02169   0.01523  -0.2374   0.6108   0.2361
   5.400   1.5594   0.02226   0.01584  -0.2346   0.6055   0.2382
   5.600   1.5635   0.02284   0.01645  -0.2319   0.5996   0.2408
   5.800   1.5869   0.02272   0.01623  -0.2318   0.5956   0.2449
   6.000   1.5924   0.02330   0.01686  -0.2293   0.5898   0.2472
   6.200   1.5962   0.02397   0.01759  -0.2267   0.5833   0.2490
   6.400   1.6211   0.02379   0.01736  -0.2267   0.5792   0.2524
   6.600   1.6151   0.02500   0.01864  -0.2229   0.5716   0.2543
   6.800   1.6284   0.02534   0.01891  -0.2216   0.5655   0.2577
   7.000   1.6352   0.02602   0.01960  -0.2195   0.5585   0.2608
   7.200   1.6403   0.02682   0.02046  -0.2172   0.5514   0.2627
   7.400   1.6505   0.02736   0.02099  -0.2155   0.5439   0.2656
   7.600   1.6535   0.02836   0.02199  -0.2130   0.5356   0.2682
   7.800   1.6601   0.02918   0.02277  -0.2110   0.5271   0.2720
   8.000   1.6670   0.03000   0.02356  -0.2091   0.5183   0.2744
   8.200   1.6682   0.03122   0.02481  -0.2067   0.5082   0.2765
   8.400   1.6767   0.03198   0.02553  -0.2049   0.4989   0.2795
   8.600   1.6770   0.03338   0.02692  -0.2024   0.4878   0.2826
   8.800   1.6789   0.03472   0.02821  -0.2002   0.4762   0.2859
   9.000   1.6826   0.03592   0.02936  -0.1982   0.4647   0.2887
   9.200   1.6834   0.03735   0.03075  -0.1959   0.4519   0.2910
   9.400   1.6829   0.03895   0.03230  -0.1935   0.4383   0.2932
   9.600   1.6828   0.04060   0.03392  -0.1913   0.4253   0.2957
   9.800   1.6819   0.04235   0.03558  -0.1891   0.4116   0.2989
  10.000   1.6813   0.04412   0.03725  -0.1870   0.3984   0.3015
  10.200   1.6803   0.04591   0.03902  -0.1849   0.3858   0.3042
  10.400   1.6786   0.04781   0.04085  -0.1827   0.3732   0.3066
  10.600   1.6767   0.04977   0.04274  -0.1806   0.3612   0.3090
  10.800   1.6768   0.05163   0.04456  -0.1788   0.3496   0.3121
  11.000   1.6771   0.05351   0.04636  -0.1770   0.3393   0.3157
  11.200   1.6762   0.05546   0.04827  -0.1752   0.3289   0.3188
  11.400   1.6766   0.05737   0.05016  -0.1735   0.3191   0.3216
  11.600   1.6788   0.05912   0.05189  -0.1720   0.3107   0.3242
  11.800   1.6812   0.06085   0.05355  -0.1706   0.3032   0.3285
  12.000   1.6838   0.06262   0.05530  -0.1692   0.2954   0.3319
  12.200   1.6860   0.06437   0.05704  -0.1678   0.2883   0.3357
  12.400   1.6900   0.06604   0.05871  -0.1665   0.2814   0.3399
  12.600   1.6935   0.06775   0.06037  -0.1653   0.2755   0.3445
  12.800   1.6981   0.06935   0.06198  -0.1641   0.2698   0.3480
  13.000   1.7019   0.07109   0.06373  -0.1630   0.2635   0.3513
  13.200   1.7057   0.07273   0.06531  -0.1618   0.2586   0.3559
  13.400   1.7111   0.07436   0.06699  -0.1608   0.2533   0.3615
  13.600   1.7158   0.07597   0.06859  -0.1598   0.2485   0.3654
  13.800   1.7214   0.07745   0.07004  -0.1588   0.2443   0.3686
  14.000   1.7270   0.07902   0.07165  -0.1578   0.2400   0.3756
  14.200   1.7321   0.08060   0.07325  -0.1569   0.2359   0.3785
  14.400   1.7378   0.08204   0.07462  -0.1559   0.2319   0.3837
  14.600   1.7421   0.08388   0.07654  -0.1551   0.2274   0.3885
  14.800   1.7467   0.08555   0.07823  -0.1543   0.2235   0.3937
  15.000   1.7532   0.08693   0.07958  -0.1534   0.2201   0.3993
