  
       XFOIL         Version 6.97
  
 Calculated polar for: 000194                                          
  
 1 1 Reynolds number fixed          Mach number fixed         
  
 xtrf =   1.000 (top)        1.000 (bottom)  
 Mach =   0.100     Re =     0.300 e 6     Ncrit =   9.000
  
   alpha    CL        CD       CDp       CM     Top_Xtr  Bot_Xtr
  ------ -------- --------- --------- -------- -------- --------
   2.000   1.4426   0.01941   0.01076  -0.2347   0.3854   0.1816
   3.000   1.5565   0.02022   0.01155  -0.2345   0.3700   0.2103
   4.000   1.6662   0.02132   0.01265  -0.2336   0.3555   0.2464
   5.000   1.7732   0.02262   0.01399  -0.2326   0.3414   0.2979
   6.000   1.8767   0.02383   0.01564  -0.2313   0.3284   0.4474
