  
       XFOIL         Version 6.97
  
 Calculated polar for: 000194                                          
  
 1 1 Reynolds number fixed          Mach number fixed         
  
 xtrf =   1.000 (top)        1.000 (bottom)  
 Mach =   0.040     Re =     0.300 e 6     Ncrit =   9.000
  
   alpha    CL        CD       CDp       CM     Top_Xtr  Bot_Xtr
  ------ -------- --------- --------- -------- -------- --------
   2.000   1.4357   0.01924   0.01059  -0.2341   0.3869   0.1824
   3.000   1.5492   0.02003   0.01135  -0.2340   0.3715   0.2111
   4.000   1.6586   0.02109   0.01239  -0.2333   0.3570   0.2477
   5.000   1.7655   0.02236   0.01367  -0.2324   0.3427   0.3000
   6.000   1.8700   0.02342   0.01533  -0.2316   0.3298   0.4929
