  
       XFOIL         Version 6.97
  
 Calculated polar for: 000292                                          
  
 1 1 Reynolds number fixed          Mach number fixed         
  
 xtrf =   1.000 (top)        1.000 (bottom)  
 Mach =   0.100     Re =     0.300 e 6     Ncrit =   9.000
  
   alpha    CL        CD       CDp       CM     Top_Xtr  Bot_Xtr
  ------ -------- --------- --------- -------- -------- --------
   2.000   0.8888   0.01345   0.00663  -0.2048   0.5363   0.5251
   3.000   1.0007   0.01411   0.00738  -0.2031   0.4909   0.5763
   4.000   1.1040   0.01491   0.00817  -0.1995   0.4165   0.6141
   5.000   1.1620   0.02125   0.01250  -0.1891   0.0385   0.6432
   6.000   1.2382   0.02476   0.01617  -0.1812   0.0298   0.6700
   8.000   1.3252   0.03405   0.02591  -0.1562   0.0225   0.7120
  10.000   1.3422   0.04557   0.03854  -0.1235   0.0201   0.7403
  11.000   1.4331   0.05646   0.05012  -0.1191   0.0210   0.7567
