  
       XFOIL         Version 6.97
  
 Calculated polar for: 000292                                          
  
 1 1 Reynolds number fixed          Mach number fixed         
  
 xtrf =   1.000 (top)        1.000 (bottom)  
 Mach =   0.040     Re =     0.300 e 6     Ncrit =   9.000
  
   alpha    CL        CD       CDp       CM     Top_Xtr  Bot_Xtr
  ------ -------- --------- --------- -------- -------- --------
   2.000   0.8853   0.01339   0.00658  -0.2041   0.5379   0.5269
   3.000   0.9969   0.01405   0.00732  -0.2026   0.4928   0.5778
   5.000   1.1591   0.02109   0.01230  -0.1891   0.0390   0.6445
   6.000   1.2365   0.02446   0.01584  -0.1816   0.0300   0.6707
   8.000   1.3268   0.03340   0.02520  -0.1571   0.0225   0.7128
  10.000   1.3422   0.04438   0.03724  -0.1243   0.0201   0.7416
