  
       XFOIL         Version 6.97
  
 Calculated polar for: 000290                                          
  
 1 1 Reynolds number fixed          Mach number fixed         
  
 xtrf =   1.000 (top)        1.000 (bottom)  
 Mach =   0.100     Re =     0.300 e 6     Ncrit =   9.000
  
   alpha    CL        CD       CDp       CM     Top_Xtr  Bot_Xtr
  ------ -------- --------- --------- -------- -------- --------
   2.000   1.2862   0.01794   0.01018  -0.1980   0.5295   0.1556
   3.000   1.3900   0.01826   0.01047  -0.1965   0.5128   0.1748
   4.000   1.4898   0.01882   0.01099  -0.1946   0.4957   0.1972
   5.000   1.5842   0.01956   0.01180  -0.1921   0.4786   0.2218
   6.000   1.6688   0.02066   0.01294  -0.1882   0.4612   0.2501
   7.000   1.7419   0.02221   0.01461  -0.1832   0.4438   0.2817
   8.000   1.8058   0.02446   0.01700  -0.1778   0.4260   0.3205
   9.000   1.8612   0.02752   0.02026  -0.1724   0.4078   0.3751
