  
       XFOIL         Version 6.97
  
 Calculated polar for: 000001                                          
  
 1 1 Reynolds number fixed          Mach number fixed         
  
 xtrf =   1.000 (top)        1.000 (bottom)  
 Mach =   0.100     Re =     0.300 e 6     Ncrit =   9.000
  
   alpha    CL        CD       CDp       CM     Top_Xtr  Bot_Xtr
  ------ -------- --------- --------- -------- -------- --------
   0.000   0.6730   0.02605   0.01719  -0.0596   0.4699   0.1484
   1.000   0.6602   0.02846   0.01993  -0.0425   0.4629   0.1627
   2.000   0.4448   0.03425   0.02573   0.0053   0.4542   0.1556
