  
       XFOIL         Version 6.99
  
 Calculated polar for: 000070                                          
  
 1 1 Reynolds number fixed          Mach number fixed         
  
 xtrf =   1.000 (top)        1.000 (bottom)  
 Mach =   0.100     Re =     0.001 e 6     Ncrit =   9.000  9.000
  
   alpha    CL        CD       CDp       CM     Top_Xtr  Bot_Xtr  Top_Itr  Bot_Itr
  ------ -------- --------- --------- -------- -------- -------- -------- --------
   2.000  -0.3358   0.26543   0.19860  -0.0259   1.0000   1.0000   1.0000 101.0000
   2.500  -0.3419   0.25960   0.19141  -0.0253   1.0000   1.0000   1.0000 101.0000
   3.000  -0.3466   0.25401   0.18435  -0.0250   1.0000   1.0000   1.0000 101.0000
   3.500  -0.3483   0.24885   0.17759  -0.0251   1.0000   1.0000   1.0000 101.0000
   4.000  -0.3460   0.24428   0.17131  -0.0257   1.0000   1.0000   1.0000 101.0000
   4.500  -0.3390   0.24041   0.16565  -0.0270   1.0000   1.0000   1.0000 101.0000
   5.000  -0.3271   0.23726   0.16073  -0.0288   1.0000   1.0000   1.0000 101.0000
   5.500  -0.3105   0.23479   0.15655  -0.0310   1.0000   1.0000   1.0000 101.0000
   6.000  -0.2902   0.23298   0.15324  -0.0335   1.0000   1.0000   1.0000 101.0000
   6.500  -0.2666   0.23173   0.15072  -0.0362   1.0000   1.0000   1.0000 101.0000
   7.000  -0.2405   0.23099   0.14895  -0.0390   1.0000   1.0000   1.0000 101.0000
   7.500  -0.2125   0.23067   0.14786  -0.0418   1.0000   1.0000   1.0000 101.0000
   8.000  -0.1829   0.23072   0.14741  -0.0445   1.0000   1.0000   1.0000 101.0000
   8.500  -0.1523   0.23109   0.14754  -0.0473   1.0000   1.0000   1.0000 101.0000
   9.000  -0.1205   0.23172   0.14815  -0.0500   1.0000   1.0000   1.0000 101.0000
   9.500  -0.0884   0.23260   0.14938  -0.0526   1.0000   1.0000   1.0000 101.0000
  10.000  -0.0559   0.23369   0.15108  -0.0552   1.0000   1.0000   1.0000 101.0000
  10.500  -0.0233   0.23496   0.15321  -0.0577   1.0000   1.0000   1.0000 101.0000
  11.000   0.0093   0.23644   0.15573  -0.0601   1.0000   1.0000   1.0000 101.0000
  11.500   0.0418   0.23814   0.15860  -0.0625   1.0000   1.0000   1.0000 101.0000
  12.000   0.0745   0.23994   0.16166  -0.0648   1.0000   1.0000   1.0000 101.0000
  12.500   0.1068   0.24185   0.16523  -0.0670   1.0000   1.0000   1.0000 101.0000
  13.000   0.1387   0.24384   0.16910  -0.0692   1.0000   1.0000   1.0000 101.0000
  13.500   0.1703   0.24590   0.17324  -0.0714   1.0000   1.0000   1.0000 101.0000
  14.000   0.2014   0.24802   0.17762  -0.0735   1.0000   1.0000   1.0000 101.0000
  14.500   0.2320   0.25021   0.18221  -0.0755   1.0000   1.0000   1.0000 101.0000
  15.000   0.2625   0.25244   0.18682  -0.0775   1.0000   1.0000   1.0000 101.0000
