  
       XFOIL         Version 6.99
  
 Calculated polar for: 000073                                          
  
 1 1 Reynolds number fixed          Mach number fixed         
  
 xtrf =   1.000 (top)        1.000 (bottom)  
 Mach =   0.100     Re =     0.001 e 6     Ncrit =   9.000  9.000
  
   alpha    CL        CD       CDp       CM     Top_Xtr  Bot_Xtr  Top_Itr  Bot_Itr
  ------ -------- --------- --------- -------- -------- -------- -------- --------
   2.000  -0.2612   0.30768   0.25373  -0.0252   1.0000   1.0000   1.0000 101.0000
   2.500  -0.2657   0.30265   0.24725  -0.0246   1.0000   1.0000   1.0000 101.0000
   3.000  -0.2705   0.29747   0.24072  -0.0239   1.0000   1.0000   1.0000 101.0000
   3.500  -0.2755   0.29216   0.23416  -0.0232   1.0000   1.0000   1.0000 101.0000
   4.000  -0.2808   0.28671   0.22756  -0.0224   1.0000   1.0000   1.0000 101.0000
   4.500  -0.2863   0.28112   0.22087  -0.0217   1.0000   1.0000   1.0000 101.0000
   5.000  -0.2918   0.27547   0.21421  -0.0209   1.0000   1.0000   1.0000 101.0000
   5.500  -0.2973   0.26979   0.20754  -0.0202   1.0000   1.0000   1.0000 101.0000
   6.000  -0.3024   0.26413   0.20090  -0.0195   1.0000   1.0000   1.0000 101.0000
   6.500  -0.3066   0.25862   0.19435  -0.0190   1.0000   1.0000   1.0000 101.0000
   7.000  -0.3090   0.25341   0.18802  -0.0188   1.0000   1.0000   1.0000 101.0000
   7.500  -0.3083   0.24866   0.18210  -0.0192   1.0000   1.0000   1.0000 101.0000
   8.000  -0.3037   0.24449   0.17674  -0.0202   1.0000   1.0000   1.0000 101.0000
   8.500  -0.2947   0.24099   0.17209  -0.0219   1.0000   1.0000   1.0000 101.0000
   9.000  -0.2811   0.23820   0.16824  -0.0242   1.0000   1.0000   1.0000 101.0000
   9.500  -0.2630   0.23610   0.16524  -0.0270   1.0000   1.0000   1.0000 101.0000
  10.000  -0.2411   0.23466   0.16311  -0.0303   1.0000   1.0000   1.0000 101.0000
  10.500  -0.2158   0.23380   0.16181  -0.0338   1.0000   1.0000   1.0000 101.0000
  11.000  -0.1878   0.23347   0.16129  -0.0374   1.0000   1.0000   1.0000 101.0000
  11.500  -0.1578   0.23357   0.16149  -0.0412   1.0000   1.0000   1.0000 101.0000
  12.000  -0.1261   0.23406   0.16233  -0.0449   1.0000   1.0000   1.0000 101.0000
  12.500  -0.0933   0.23488   0.16380  -0.0487   1.0000   1.0000   1.0000 101.0000
  13.000  -0.0598   0.23598   0.16583  -0.0523   1.0000   1.0000   1.0000 101.0000
  13.500  -0.0257   0.23732   0.16836  -0.0559   1.0000   1.0000   1.0000 101.0000
  14.000   0.0086   0.23895   0.17136  -0.0594   1.0000   1.0000   1.0000 101.0000
  14.500   0.0430   0.24082   0.17478  -0.0628   1.0000   1.0000   1.0000 101.0000
  15.000   0.0773   0.24282   0.17860  -0.0661   1.0000   1.0000   1.0000 101.0000
