  
       XFOIL         Version 6.99
  
 Calculated polar for: 000011                                          
  
 1 1 Reynolds number fixed          Mach number fixed         
  
 xtrf =   1.000 (top)        1.000 (bottom)  
 Mach =   0.100     Re =     0.001 e 6     Ncrit =   9.000  9.000
  
   alpha    CL        CD       CDp       CM     Top_Xtr  Bot_Xtr  Top_Itr  Bot_Itr
  ------ -------- --------- --------- -------- -------- -------- -------- --------
   2.000  -0.2118   0.31858   0.27253  -0.0163   1.0000   1.0000   1.0000 101.0000
   2.500  -0.2174   0.31383   0.26648  -0.0157   1.0000   1.0000   1.0000 101.0000
   3.000  -0.2232   0.30892   0.26039  -0.0152   1.0000   1.0000   1.0000 101.0000
   3.500  -0.2292   0.30385   0.25425  -0.0146   1.0000   1.0000   1.0000 101.0000
   4.000  -0.2356   0.29861   0.24803  -0.0140   1.0000   1.0000   1.0000 101.0000
   4.500  -0.2422   0.29324   0.24178  -0.0133   1.0000   1.0000   1.0000 101.0000
   5.000  -0.2490   0.28774   0.23548  -0.0127   1.0000   1.0000   1.0000 101.0000
   5.500  -0.2559   0.28213   0.22913  -0.0120   1.0000   1.0000   1.0000 101.0000
   6.000  -0.2627   0.27648   0.22277  -0.0114   1.0000   1.0000   1.0000 101.0000
   6.500  -0.2692   0.27084   0.21641  -0.0109   1.0000   1.0000   1.0000 101.0000
   7.000  -0.2748   0.26533   0.21013  -0.0105   1.0000   1.0000   1.0000 101.0000
   7.500  -0.2785   0.26011   0.20410  -0.0105   1.0000   1.0000   1.0000 101.0000
   8.000  -0.2792   0.25535   0.19848  -0.0110   1.0000   1.0000   1.0000 101.0000
   8.500  -0.2762   0.25117   0.19345  -0.0121   1.0000   1.0000   1.0000 101.0000
   9.000  -0.2687   0.24767   0.18918  -0.0139   1.0000   1.0000   1.0000 101.0000
   9.500  -0.2567   0.24489   0.18576  -0.0163   1.0000   1.0000   1.0000 101.0000
  10.000  -0.2404   0.24281   0.18325  -0.0193   1.0000   1.0000   1.0000 101.0000
  10.500  -0.2200   0.24140   0.18163  -0.0227   1.0000   1.0000   1.0000 101.0000
  11.000  -0.1964   0.24059   0.18093  -0.0264   1.0000   1.0000   1.0000 101.0000
  11.500  -0.1701   0.24031   0.18107  -0.0302   1.0000   1.0000   1.0000 101.0000
  12.000  -0.1418   0.24049   0.18198  -0.0341   1.0000   1.0000   1.0000 101.0000
  12.500  -0.1118   0.24107   0.18360  -0.0381   1.0000   1.0000   1.0000 101.0000
  13.000  -0.0807   0.24198   0.18588  -0.0421   1.0000   1.0000   1.0000 101.0000
  13.500  -0.0488   0.24317   0.18875  -0.0460   1.0000   1.0000   1.0000 101.0000
  14.000  -0.0163   0.24460   0.19216  -0.0498   1.0000   1.0000   1.0000 101.0000
  14.500   0.0166   0.24626   0.19602  -0.0536   1.0000   1.0000   1.0000 101.0000
  15.000   0.0494   0.24825   0.20041  -0.0573   1.0000   1.0000   1.0000 101.0000
