  
       XFOIL         Version 6.99
  
 Calculated polar for: 000528                                          
  
 1 1 Reynolds number fixed          Mach number fixed         
  
 xtrf =   1.000 (top)        1.000 (bottom)  
 Mach =   0.100     Re =     0.001 e 6     Ncrit =   9.000  9.000
  
   alpha    CL        CD       CDp       CM     Top_Xtr  Bot_Xtr  Top_Itr  Bot_Itr
  ------ -------- --------- --------- -------- -------- -------- -------- --------
   2.000  -0.1265   0.30601   0.21167  -0.0218   1.0000   1.0000   1.0000 101.0000
   2.500  -0.1265   0.30287   0.20716  -0.0206   1.0000   1.0000   1.0000 101.0000
   3.000  -0.1268   0.29969   0.20272  -0.0194   1.0000   1.0000   1.0000 101.0000
   3.500  -0.1272   0.29646   0.19835  -0.0182   1.0000   1.0000   1.0000 101.0000
   4.000  -0.1279   0.29320   0.19405  -0.0169   1.0000   1.0000   1.0000 101.0000
   4.500  -0.1288   0.28990   0.18983  -0.0156   1.0000   1.0000   1.0000 101.0000
   5.000  -0.1300   0.28656   0.18567  -0.0142   1.0000   1.0000   1.0000 101.0000
   5.500  -0.1313   0.28318   0.18158  -0.0128   1.0000   1.0000   1.0000 101.0000
   6.000  -0.1329   0.27977   0.17754  -0.0114   1.0000   1.0000   1.0000 101.0000
   6.500  -0.1347   0.27633   0.17358  -0.0099   1.0000   1.0000   1.0000 101.0000
   7.000  -0.1367   0.27287   0.16969  -0.0084   1.0000   1.0000   1.0000 101.0000
   7.500  -0.1388   0.26939   0.16586  -0.0069   1.0000   1.0000   1.0000 101.0000
   8.000  -0.1410   0.26592   0.16212  -0.0054   1.0000   1.0000   1.0000 101.0000
   8.500  -0.1431   0.26248   0.15846  -0.0038   1.0000   1.0000   1.0000 101.0000
   9.000  -0.1450   0.25909   0.15490  -0.0023   1.0000   1.0000   1.0000 101.0000
   9.500  -0.1467   0.25577   0.15146  -0.0008   1.0000   1.0000   1.0000 101.0000
  10.000  -0.1479   0.25257   0.14816   0.0006   1.0000   1.0000   1.0000 101.0000
  10.500  -0.1481   0.24955   0.14508   0.0018   1.0000   1.0000   1.0000 101.0000
  11.000  -0.1471   0.24676   0.14226   0.0029   1.0000   1.0000   1.0000 101.0000
  11.500  -0.1444   0.24424   0.13978   0.0037   1.0000   1.0000   1.0000 101.0000
  12.000  -0.1400   0.24201   0.13766   0.0042   1.0000   1.0000   1.0000 101.0000
  12.500  -0.1337   0.24010   0.13599   0.0044   1.0000   1.0000   1.0000 101.0000
  13.000  -0.1256   0.23850   0.13477   0.0044   1.0000   1.0000   1.0000 101.0000
  13.500  -0.1157   0.23723   0.13404   0.0041   1.0000   1.0000   1.0000 101.0000
  14.000  -0.1042   0.23625   0.13379   0.0035   1.0000   1.0000   1.0000 101.0000
  14.500  -0.0911   0.23557   0.13403   0.0027   1.0000   1.0000   1.0000 101.0000
  15.000  -0.0767   0.23516   0.13476   0.0017   1.0000   1.0000   1.0000 101.0000
