  
       XFOIL         Version 6.99
  
 Calculated polar for: 000740                                          
  
 1 1 Reynolds number fixed          Mach number fixed         
  
 xtrf =   1.000 (top)        1.000 (bottom)  
 Mach =   0.100     Re =     0.300 e 6     Ncrit =   9.000  9.000
  
   alpha    CL        CD       CDp       CM     Top_Xtr  Bot_Xtr  Top_Itr  Bot_Itr
  ------ -------- --------- --------- -------- -------- -------- -------- --------
   2.500   0.3608   0.03506  -0.00196  -0.0531   0.6585   0.1578  14.6613  65.4943
   3.500   0.7083   0.03422   0.00324  -0.1024   0.6636   1.0000  14.4539 101.0000
   4.000   0.7688   0.03323   0.00186  -0.1029   0.6594   1.0000  14.6216 101.0000
   4.500   0.8383   0.03176   0.00010  -0.1048   0.6570   1.0000  14.7206 101.0000
   5.000   0.9168   0.02992  -0.00189  -0.1081   0.6550   1.0000  14.7985 101.0000
   5.500   0.9996   0.02802  -0.00391  -0.1123   0.6522   1.0000  14.9127 101.0000
   6.500   1.0919   0.02792  -0.00543  -0.1100   0.6282   1.0000  15.8780 101.0000
   7.500   1.1788   0.02826  -0.00678  -0.1071   0.5980   1.0000  17.0995 101.0000
   8.000   1.2099   0.02907  -0.00709  -0.1039   0.5784   1.0000  17.8925 101.0000
   8.500   1.2296   0.03055  -0.00694  -0.0992   0.5563   1.0000  18.7870 101.0000
   9.000   1.2549   0.03179  -0.00695  -0.0955   0.5333   1.0000  19.7231 101.0000
   9.500   1.2785   0.03318  -0.00688  -0.0916   0.5096   1.0000  20.6940 101.0000
  10.000   1.2956   0.03500  -0.00652  -0.0871   0.4841   1.0000  21.7433 101.0000
  10.500   1.3131   0.03689  -0.00609  -0.0828   0.4587   1.0000  22.7906 101.0000
  11.000   1.3261   0.03912  -0.00539  -0.0783   0.4331   1.0000  23.8575 101.0000
  11.500   1.3375   0.04154  -0.00452  -0.0737   0.4077   1.0000  24.9277 101.0000
  12.000   1.3487   0.04410  -0.00350  -0.0695   0.3841   1.0000  25.9290 101.0000
  12.500   1.3582   0.04689  -0.00226  -0.0653   0.3612   1.0000  26.9109 101.0000
  13.000   1.3673   0.04982  -0.00090  -0.0614   0.3392   1.0000  27.8634 101.0000
  13.500   1.3777   0.05274   0.00052  -0.0579   0.3195   1.0000  28.7304 101.0000
  14.000   1.3888   0.05570   0.00197  -0.0548   0.3013   1.0000  29.5381 101.0000
  14.500   1.3982   0.05886   0.00358  -0.0517   0.2839   1.0000  30.3242 101.0000
  15.000   1.4063   0.06217   0.00533  -0.0488   0.2673   1.0000  31.0816 101.0000
