  
       XFOIL         Version 6.99
  
 Calculated polar for: 000798                                          
  
 1 1 Reynolds number fixed          Mach number fixed         
  
 xtrf =   1.000 (top)        1.000 (bottom)  
 Mach =   0.100     Re =     0.300 e 6     Ncrit =   9.000  9.000
  
   alpha    CL        CD       CDp       CM     Top_Xtr  Bot_Xtr  Top_Itr  Bot_Itr
  ------ -------- --------- --------- -------- -------- -------- -------- --------
   2.000   0.4236   0.03970   0.01019  -0.1006   0.6826   0.9972  13.7011 100.8892
   3.500   0.6238   0.03847   0.00759  -0.1077   0.6771   1.0000  13.9224 101.0000
   4.000   0.6871   0.03769   0.00623  -0.1091   0.6758   1.0000  13.9726 101.0000
