  
       XFOIL         Version 6.99
  
 Calculated polar for: 001279                                          
  
 1 1 Reynolds number fixed          Mach number fixed         
  
 xtrf =   1.000 (top)        1.000 (bottom)  
 Mach =   0.100     Re =     0.300 e 6     Ncrit =   9.000  9.000
  
   alpha    CL        CD       CDp       CM     Top_Xtr  Bot_Xtr  Top_Itr  Bot_Itr
  ------ -------- --------- --------- -------- -------- -------- -------- --------
   2.000   0.1297   0.03946   0.00216  -0.0579   0.6787   0.1469  13.8717  64.9160
   2.500   0.2129   0.03941   0.00256  -0.0646   0.6774   0.1941  13.9222  67.3861
   3.000   0.3176   0.03963   0.00410  -0.0764   0.6766   0.3119  13.9554  72.9176
