  
       XFOIL         Version 6.99
  
 Calculated polar for: 001348                                          
  
 1 1 Reynolds number fixed          Mach number fixed         
  
 xtrf =   1.000 (top)        1.000 (bottom)  
 Mach =   0.100     Re =     0.001 e 6     Ncrit =   9.000  9.000
  
   alpha    CL        CD       CDp       CM     Top_Xtr  Bot_Xtr  Top_Itr  Bot_Itr
  ------ -------- --------- --------- -------- -------- -------- -------- --------
   2.000   0.0297   0.26621   0.12093  -0.0085   1.0000   1.0000   1.0000 101.0000
   2.500   0.0251   0.26470   0.12006  -0.0072   1.0000   1.0000   1.0000 101.0000
   3.000   0.0198   0.26315   0.11922  -0.0060   1.0000   1.0000   1.0000 101.0000
   3.500   0.0140   0.26154   0.11841  -0.0048   1.0000   1.0000   1.0000 101.0000
   4.000   0.0077   0.25986   0.11762  -0.0036   1.0000   1.0000   1.0000 101.0000
   4.500   0.0009   0.25810   0.11682  -0.0024   1.0000   1.0000   1.0000 101.0000
   5.000  -0.0062   0.25623   0.11602  -0.0012   1.0000   1.0000   1.0000 101.0000
   5.500  -0.0137   0.25426   0.11518  -0.0001   1.0000   1.0000   1.0000 101.0000
   6.000  -0.0214   0.25216   0.11430   0.0011   1.0000   1.0000   1.0000 101.0000
   6.500  -0.0293   0.24993   0.11338   0.0022   1.0000   1.0000   1.0000 101.0000
   7.000  -0.0372   0.24757   0.11240   0.0032   1.0000   1.0000   1.0000 101.0000
   7.500  -0.0452   0.24508   0.11136   0.0042   1.0000   1.0000   1.0000 101.0000
   8.000  -0.0531   0.24247   0.11026   0.0052   1.0000   1.0000   1.0000 101.0000
   8.500  -0.0608   0.23974   0.10911   0.0061   1.0000   1.0000   1.0000 101.0000
   9.000  -0.0683   0.23692   0.10790   0.0069   1.0000   1.0000   1.0000 101.0000
   9.500  -0.0751   0.23405   0.10670   0.0076   1.0000   1.0000   1.0000 101.0000
  10.000  -0.0809   0.23119   0.10555   0.0081   1.0000   1.0000   1.0000 101.0000
  10.500  -0.0854   0.22843   0.10448   0.0084   1.0000   1.0000   1.0000 101.0000
  11.000  -0.0882   0.22586   0.10361   0.0083   1.0000   1.0000   1.0000 101.0000
  11.500  -0.0890   0.22352   0.10299   0.0079   1.0000   1.0000   1.0000 101.0000
  12.000  -0.0877   0.22147   0.10266   0.0072   1.0000   1.0000   1.0000 101.0000
  12.500  -0.0843   0.21974   0.10267   0.0060   1.0000   1.0000   1.0000 101.0000
  13.000  -0.0786   0.21835   0.10308   0.0045   1.0000   1.0000   1.0000 101.0000
  13.500  -0.0708   0.21732   0.10390   0.0027   1.0000   1.0000   1.0000 101.0000
  14.000  -0.0610   0.21665   0.10516   0.0006   1.0000   1.0000   1.0000 101.0000
  14.500  -0.0493   0.21633   0.10687  -0.0019   1.0000   1.0000   1.0000 101.0000
  15.000  -0.0359   0.21636   0.10903  -0.0045   1.0000   1.0000   1.0000 101.0000
