  
       XFOIL         Version 6.99
  
 Calculated polar for: 001566                                          
  
 1 1 Reynolds number fixed          Mach number fixed         
  
 xtrf =   1.000 (top)        1.000 (bottom)  
 Mach =   0.100     Re =     0.001 e 6     Ncrit =   9.000  9.000
  
   alpha    CL        CD       CDp       CM     Top_Xtr  Bot_Xtr  Top_Itr  Bot_Itr
  ------ -------- --------- --------- -------- -------- -------- -------- --------
   2.000  -0.0977   0.28051   0.18332  -0.0198   1.0000   1.0000   1.0000 101.0000
   2.500  -0.1030   0.27755   0.17980  -0.0186   1.0000   1.0000   1.0000 101.0000
   3.000  -0.1085   0.27450   0.17632  -0.0172   1.0000   1.0000   1.0000 101.0000
   3.500  -0.1144   0.27138   0.17285  -0.0159   1.0000   1.0000   1.0000 101.0000
   4.000  -0.1206   0.26818   0.16940  -0.0145   1.0000   1.0000   1.0000 101.0000
   4.500  -0.1270   0.26490   0.16594  -0.0132   1.0000   1.0000   1.0000 101.0000
   5.000  -0.1336   0.26157   0.16250  -0.0118   1.0000   1.0000   1.0000 101.0000
   5.500  -0.1402   0.25820   0.15907  -0.0104   1.0000   1.0000   1.0000 101.0000
   6.000  -0.1466   0.25482   0.15566  -0.0090   1.0000   1.0000   1.0000 101.0000
   6.500  -0.1527   0.25147   0.15229  -0.0077   1.0000   1.0000   1.0000 101.0000
   7.000  -0.1583   0.24820   0.14900  -0.0065   1.0000   1.0000   1.0000 101.0000
   7.500  -0.1625   0.24509   0.14585  -0.0055   1.0000   1.0000   1.0000 101.0000
   8.000  -0.1649   0.24221   0.14293  -0.0048   1.0000   1.0000   1.0000 101.0000
   8.500  -0.1650   0.23962   0.14033  -0.0044   1.0000   1.0000   1.0000 101.0000
   9.000  -0.1625   0.23737   0.13812  -0.0044   1.0000   1.0000   1.0000 101.0000
   9.500  -0.1572   0.23547   0.13632  -0.0048   1.0000   1.0000   1.0000 101.0000
  10.000  -0.1493   0.23394   0.13506  -0.0055   1.0000   1.0000   1.0000 101.0000
  10.500  -0.1389   0.23278   0.13431  -0.0065   1.0000   1.0000   1.0000 101.0000
  11.000  -0.1262   0.23198   0.13410  -0.0078   1.0000   1.0000   1.0000 101.0000
  11.500  -0.1114   0.23150   0.13443  -0.0094   1.0000   1.0000   1.0000 101.0000
  12.000  -0.0949   0.23133   0.13529  -0.0111   1.0000   1.0000   1.0000 101.0000
  12.500  -0.0768   0.23145   0.13667  -0.0130   1.0000   1.0000   1.0000 101.0000
  13.000  -0.0574   0.23184   0.13855  -0.0151   1.0000   1.0000   1.0000 101.0000
  13.500  -0.0369   0.23246   0.14094  -0.0172   1.0000   1.0000   1.0000 101.0000
  14.000  -0.0155   0.23331   0.14380  -0.0195   1.0000   1.0000   1.0000 101.0000
  14.500   0.0068   0.23436   0.14707  -0.0219   1.0000   1.0000   1.0000 101.0000
  15.000   0.0297   0.23561   0.15085  -0.0243   1.0000   1.0000   1.0000 101.0000
