  
       XFOIL         Version 6.99
  
 Calculated polar for: 001604                                          
  
 1 1 Reynolds number fixed          Mach number fixed         
  
 xtrf =   1.000 (top)        1.000 (bottom)  
 Mach =   0.100     Re =     0.001 e 6     Ncrit =   9.000  9.000
  
   alpha    CL        CD       CDp       CM     Top_Xtr  Bot_Xtr  Top_Itr  Bot_Itr
  ------ -------- --------- --------- -------- -------- -------- -------- --------
   2.000  -0.0587   0.29471   0.15117  -0.0157   1.0000   1.0000   1.0000 101.0000
   2.500  -0.0596   0.29154   0.14818  -0.0148   1.0000   1.0000   1.0000 101.0000
   3.000  -0.0607   0.28831   0.14523  -0.0138   1.0000   1.0000   1.0000 101.0000
   3.500  -0.0621   0.28500   0.14232  -0.0128   1.0000   1.0000   1.0000 101.0000
   4.000  -0.0637   0.28162   0.13944  -0.0118   1.0000   1.0000   1.0000 101.0000
   4.500  -0.0655   0.27816   0.13660  -0.0108   1.0000   1.0000   1.0000 101.0000
   5.000  -0.0676   0.27462   0.13379  -0.0098   1.0000   1.0000   1.0000 101.0000
   5.500  -0.0699   0.27098   0.13099  -0.0088   1.0000   1.0000   1.0000 101.0000
   6.000  -0.0725   0.26725   0.12824  -0.0077   1.0000   1.0000   1.0000 101.0000
   6.500  -0.0753   0.26342   0.12552  -0.0067   1.0000   1.0000   1.0000 101.0000
   7.000  -0.0784   0.25950   0.12284  -0.0056   1.0000   1.0000   1.0000 101.0000
   7.500  -0.0816   0.25550   0.12018  -0.0046   1.0000   1.0000   1.0000 101.0000
   8.000  -0.0850   0.25143   0.11755  -0.0035   1.0000   1.0000   1.0000 101.0000
   8.500  -0.0886   0.24731   0.11496  -0.0025   1.0000   1.0000   1.0000 101.0000
   9.000  -0.0922   0.24317   0.11240  -0.0014   1.0000   1.0000   1.0000 101.0000
   9.500  -0.0959   0.23903   0.10988  -0.0004   1.0000   1.0000   1.0000 101.0000
  10.000  -0.0993   0.23495   0.10743   0.0005   1.0000   1.0000   1.0000 101.0000
  10.500  -0.1022   0.23099   0.10509   0.0012   1.0000   1.0000   1.0000 101.0000
  11.000  -0.1040   0.22722   0.10293   0.0018   1.0000   1.0000   1.0000 101.0000
  11.500  -0.1043   0.22373   0.10103   0.0020   1.0000   1.0000   1.0000 101.0000
  12.000  -0.1029   0.22057   0.09944   0.0019   1.0000   1.0000   1.0000 101.0000
  12.500  -0.0994   0.21778   0.09820   0.0014   1.0000   1.0000   1.0000 101.0000
  13.000  -0.0938   0.21540   0.09743   0.0005   1.0000   1.0000   1.0000 101.0000
  13.500  -0.0860   0.21346   0.09714  -0.0007   1.0000   1.0000   1.0000 101.0000
  14.000  -0.0760   0.21195   0.09735  -0.0024   1.0000   1.0000   1.0000 101.0000
  14.500  -0.0639   0.21087   0.09809  -0.0044   1.0000   1.0000   1.0000 101.0000
  15.000  -0.0500   0.21021   0.09936  -0.0067   1.0000   1.0000   1.0000 101.0000
