  
       XFOIL         Version 6.99
  
 Calculated polar for: 001995                                          
  
 1 1 Reynolds number fixed          Mach number fixed         
  
 xtrf =   1.000 (top)        1.000 (bottom)  
 Mach =   0.100     Re =     0.001 e 6     Ncrit =   9.000  9.000
  
   alpha    CL        CD       CDp       CM     Top_Xtr  Bot_Xtr  Top_Itr  Bot_Itr
  ------ -------- --------- --------- -------- -------- -------- -------- --------
   2.000  -0.0752   0.30240   0.15172  -0.0148   1.0000   1.0000   1.0000 101.0000
   2.500  -0.0764   0.29928   0.14882  -0.0137   1.0000   1.0000   1.0000 101.0000
   3.000  -0.0779   0.29610   0.14596  -0.0127   1.0000   1.0000   1.0000 101.0000
   3.500  -0.0795   0.29287   0.14313  -0.0116   1.0000   1.0000   1.0000 101.0000
   4.000  -0.0812   0.28957   0.14035  -0.0104   1.0000   1.0000   1.0000 101.0000
   4.500  -0.0832   0.28620   0.13760  -0.0093   1.0000   1.0000   1.0000 101.0000
   5.000  -0.0853   0.28276   0.13488  -0.0081   1.0000   1.0000   1.0000 101.0000
   5.500  -0.0875   0.27925   0.13219  -0.0069   1.0000   1.0000   1.0000 101.0000
   6.000  -0.0899   0.27567   0.12957  -0.0057   1.0000   1.0000   1.0000 101.0000
   6.500  -0.0925   0.27202   0.12698  -0.0045   1.0000   1.0000   1.0000 101.0000
   7.000  -0.0952   0.26831   0.12443  -0.0032   1.0000   1.0000   1.0000 101.0000
   7.500  -0.0979   0.26456   0.12193  -0.0020   1.0000   1.0000   1.0000 101.0000
   8.000  -0.1008   0.26078   0.11947  -0.0007   1.0000   1.0000   1.0000 101.0000
   8.500  -0.1036   0.25697   0.11705   0.0006   1.0000   1.0000   1.0000 101.0000
   9.000  -0.1064   0.25318   0.11469   0.0019   1.0000   1.0000   1.0000 101.0000
   9.500  -0.1091   0.24941   0.11240   0.0031   1.0000   1.0000   1.0000 101.0000
  10.000  -0.1115   0.24569   0.11017   0.0044   1.0000   1.0000   1.0000 101.0000
  10.500  -0.1137   0.24205   0.10803   0.0056   1.0000   1.0000   1.0000 101.0000
  11.000  -0.1151   0.23856   0.10602   0.0067   1.0000   1.0000   1.0000 101.0000
  11.500  -0.1157   0.23525   0.10416   0.0076   1.0000   1.0000   1.0000 101.0000
  12.000  -0.1152   0.23217   0.10255   0.0084   1.0000   1.0000   1.0000 101.0000
  12.500  -0.1134   0.22936   0.10119   0.0090   1.0000   1.0000   1.0000 101.0000
  13.000  -0.1103   0.22681   0.10013   0.0093   1.0000   1.0000   1.0000 101.0000
  13.500  -0.1058   0.22456   0.09938   0.0094   1.0000   1.0000   1.0000 101.0000
  14.000  -0.1000   0.22258   0.09895   0.0093   1.0000   1.0000   1.0000 101.0000
  14.500  -0.0930   0.22089   0.09887   0.0090   1.0000   1.0000   1.0000 101.0000
  15.000  -0.0848   0.21947   0.09913   0.0085   1.0000   1.0000   1.0000 101.0000
