  
       XFOIL         Version 6.99
  
 Calculated polar for: 001981                                          
  
 1 1 Reynolds number fixed          Mach number fixed         
  
 xtrf =   1.000 (top)        1.000 (bottom)  
 Mach =   0.100     Re =     0.300 e 6     Ncrit =   9.000  9.000
  
   alpha    CL        CD       CDp       CM     Top_Xtr  Bot_Xtr  Top_Itr  Bot_Itr
  ------ -------- --------- --------- -------- -------- -------- -------- --------
   3.500   0.2059   0.04175   0.00165  -0.0563   0.6550   0.1654  14.8318  65.9130
   4.000   0.2860   0.04163   0.00177  -0.0617   0.6535   0.1910  14.8919  67.2363
   4.500   0.3704   0.04138   0.00176  -0.0677   0.6523   0.2252  14.9401  68.9196
   5.000   0.4699   0.04135   0.00257  -0.0774   0.6514   0.2857  14.9760  71.7384
   7.000   0.7793   0.04644   0.00957  -0.1039   0.6288   1.0000  15.8890 101.0000
   7.500   0.8429   0.04544   0.00781  -0.1049   0.6276   1.0000  15.9369 101.0000
   8.000   0.9060   0.04450   0.00609  -0.1059   0.6264   1.0000  15.9827 101.0000
