  
       XFOIL         Version 6.99
  
 Calculated polar for: 002150                                          
  
 1 1 Reynolds number fixed          Mach number fixed         
  
 xtrf =   1.000 (top)        1.000 (bottom)  
 Mach =   0.100     Re =     0.001 e 6     Ncrit =   9.000  9.000
  
   alpha    CL        CD       CDp       CM     Top_Xtr  Bot_Xtr  Top_Itr  Bot_Itr
  ------ -------- --------- --------- -------- -------- -------- -------- --------
   2.000  -0.0775   0.29761   0.14501  -0.0142   1.0000   1.0000   1.0000 101.0000
   2.500  -0.0780   0.29451   0.14212  -0.0131   1.0000   1.0000   1.0000 101.0000
   3.000  -0.0787   0.29136   0.13929  -0.0120   1.0000   1.0000   1.0000 101.0000
   3.500  -0.0796   0.28817   0.13649  -0.0108   1.0000   1.0000   1.0000 101.0000
   4.000  -0.0806   0.28492   0.13375  -0.0096   1.0000   1.0000   1.0000 101.0000
   4.500  -0.0818   0.28162   0.13106  -0.0084   1.0000   1.0000   1.0000 101.0000
   5.000  -0.0832   0.27827   0.12841  -0.0071   1.0000   1.0000   1.0000 101.0000
   5.500  -0.0847   0.27485   0.12578  -0.0058   1.0000   1.0000   1.0000 101.0000
   6.000  -0.0864   0.27137   0.12323  -0.0045   1.0000   1.0000   1.0000 101.0000
   6.500  -0.0883   0.26783   0.12073  -0.0032   1.0000   1.0000   1.0000 101.0000
   7.000  -0.0903   0.26425   0.11828  -0.0019   1.0000   1.0000   1.0000 101.0000
   7.500  -0.0923   0.26063   0.11589  -0.0006   1.0000   1.0000   1.0000 101.0000
   8.000  -0.0945   0.25698   0.11355   0.0008   1.0000   1.0000   1.0000 101.0000
   8.500  -0.0967   0.25333   0.11127   0.0022   1.0000   1.0000   1.0000 101.0000
   9.000  -0.0988   0.24969   0.10905   0.0035   1.0000   1.0000   1.0000 101.0000
   9.500  -0.1008   0.24609   0.10690   0.0048   1.0000   1.0000   1.0000 101.0000
  10.000  -0.1026   0.24254   0.10484   0.0061   1.0000   1.0000   1.0000 101.0000
  10.500  -0.1041   0.23910   0.10287   0.0073   1.0000   1.0000   1.0000 101.0000
  11.000  -0.1049   0.23581   0.10106   0.0085   1.0000   1.0000   1.0000 101.0000
  11.500  -0.1048   0.23270   0.09941   0.0094   1.0000   1.0000   1.0000 101.0000
  12.000  -0.1036   0.22982   0.09801   0.0102   1.0000   1.0000   1.0000 101.0000
  12.500  -0.1013   0.22719   0.09686   0.0108   1.0000   1.0000   1.0000 101.0000
  13.000  -0.0977   0.22483   0.09601   0.0111   1.0000   1.0000   1.0000 101.0000
  13.500  -0.0928   0.22273   0.09547   0.0112   1.0000   1.0000   1.0000 101.0000
  14.000  -0.0867   0.22091   0.09524   0.0111   1.0000   1.0000   1.0000 101.0000
  14.500  -0.0795   0.21935   0.09535   0.0108   1.0000   1.0000   1.0000 101.0000
  15.000  -0.0712   0.21805   0.09580   0.0103   1.0000   1.0000   1.0000 101.0000
