  
       XFOIL         Version 6.99
  
 Calculated polar for: 002177                                          
  
 1 1 Reynolds number fixed          Mach number fixed         
  
 xtrf =   1.000 (top)        1.000 (bottom)  
 Mach =   0.100     Re =     0.001 e 6     Ncrit =   9.000  9.000
  
   alpha    CL        CD       CDp       CM     Top_Xtr  Bot_Xtr  Top_Itr  Bot_Itr
  ------ -------- --------- --------- -------- -------- -------- -------- --------
   2.000  -0.1013   0.29758   0.15381  -0.0196   1.0000   1.0000   1.0000 101.0000
   2.500  -0.1012   0.29399   0.15021  -0.0186   1.0000   1.0000   1.0000 101.0000
   3.000  -0.1011   0.29035   0.14665  -0.0177   1.0000   1.0000   1.0000 101.0000
   3.500  -0.1012   0.28663   0.14311  -0.0167   1.0000   1.0000   1.0000 101.0000
   4.000  -0.1015   0.28285   0.13962  -0.0157   1.0000   1.0000   1.0000 101.0000
   4.500  -0.1020   0.27900   0.13615  -0.0146   1.0000   1.0000   1.0000 101.0000
   5.000  -0.1026   0.27506   0.13272  -0.0136   1.0000   1.0000   1.0000 101.0000
   5.500  -0.1034   0.27106   0.12931  -0.0125   1.0000   1.0000   1.0000 101.0000
   6.000  -0.1044   0.26697   0.12595  -0.0113   1.0000   1.0000   1.0000 101.0000
   6.500  -0.1055   0.26280   0.12262  -0.0102   1.0000   1.0000   1.0000 101.0000
   7.000  -0.1069   0.25857   0.11933  -0.0090   1.0000   1.0000   1.0000 101.0000
   7.500  -0.1084   0.25428   0.11608  -0.0078   1.0000   1.0000   1.0000 101.0000
   8.000  -0.1100   0.24994   0.11287  -0.0066   1.0000   1.0000   1.0000 101.0000
   8.500  -0.1118   0.24559   0.10970  -0.0055   1.0000   1.0000   1.0000 101.0000
   9.000  -0.1135   0.24124   0.10660  -0.0043   1.0000   1.0000   1.0000 101.0000
   9.500  -0.1152   0.23693   0.10355  -0.0031   1.0000   1.0000   1.0000 101.0000
  10.000  -0.1167   0.23270   0.10058  -0.0020   1.0000   1.0000   1.0000 101.0000
  10.500  -0.1175   0.22863   0.09774  -0.0010   1.0000   1.0000   1.0000 101.0000
  11.000  -0.1172   0.22479   0.09512  -0.0003   1.0000   1.0000   1.0000 101.0000
  11.500  -0.1155   0.22125   0.09276   0.0002   1.0000   1.0000   1.0000 101.0000
  12.000  -0.1120   0.21806   0.09073   0.0004   1.0000   1.0000   1.0000 101.0000
  12.500  -0.1065   0.21525   0.08908   0.0002   1.0000   1.0000   1.0000 101.0000
  13.000  -0.0990   0.21285   0.08784  -0.0004   1.0000   1.0000   1.0000 101.0000
  13.500  -0.0894   0.21087   0.08707  -0.0012   1.0000   1.0000   1.0000 101.0000
  14.000  -0.0779   0.20930   0.08676  -0.0024   1.0000   1.0000   1.0000 101.0000
  14.500  -0.0647   0.20812   0.08693  -0.0039   1.0000   1.0000   1.0000 101.0000
  15.000  -0.0498   0.20733   0.08759  -0.0056   1.0000   1.0000   1.0000 101.0000
