  
       XFOIL         Version 6.99
  
 Calculated polar for: 002213                                          
  
 1 1 Reynolds number fixed          Mach number fixed         
  
 xtrf =   1.000 (top)        1.000 (bottom)  
 Mach =   0.100     Re =     0.001 e 6     Ncrit =   9.000  9.000
  
   alpha    CL        CD       CDp       CM     Top_Xtr  Bot_Xtr  Top_Itr  Bot_Itr
  ------ -------- --------- --------- -------- -------- -------- -------- --------
   2.000  -0.0426   0.29228   0.14185  -0.0142   1.0000   1.0000   1.0000 101.0000
   2.500  -0.0440   0.28950   0.13934  -0.0131   1.0000   1.0000   1.0000 101.0000
   3.000  -0.0456   0.28667   0.13687  -0.0120   1.0000   1.0000   1.0000 101.0000
   3.500  -0.0476   0.28378   0.13445  -0.0108   1.0000   1.0000   1.0000 101.0000
   4.000  -0.0498   0.28082   0.13206  -0.0097   1.0000   1.0000   1.0000 101.0000
   4.500  -0.0523   0.27780   0.12972  -0.0085   1.0000   1.0000   1.0000 101.0000
   5.000  -0.0551   0.27471   0.12742  -0.0073   1.0000   1.0000   1.0000 101.0000
   5.500  -0.0581   0.27154   0.12515  -0.0061   1.0000   1.0000   1.0000 101.0000
   6.000  -0.0613   0.26830   0.12292  -0.0049   1.0000   1.0000   1.0000 101.0000
   6.500  -0.0648   0.26498   0.12071  -0.0037   1.0000   1.0000   1.0000 101.0000
   7.000  -0.0686   0.26157   0.11853  -0.0025   1.0000   1.0000   1.0000 101.0000
   7.500  -0.0725   0.25807   0.11638  -0.0013   1.0000   1.0000   1.0000 101.0000
   8.000  -0.0766   0.25449   0.11426  -0.0001   1.0000   1.0000   1.0000 101.0000
   8.500  -0.0807   0.25086   0.11217   0.0011   1.0000   1.0000   1.0000 101.0000
   9.000  -0.0849   0.24720   0.11011   0.0023   1.0000   1.0000   1.0000 101.0000
   9.500  -0.0891   0.24353   0.10809   0.0034   1.0000   1.0000   1.0000 101.0000
  10.000  -0.0931   0.23990   0.10612   0.0045   1.0000   1.0000   1.0000 101.0000
  10.500  -0.0966   0.23636   0.10424   0.0055   1.0000   1.0000   1.0000 101.0000
  11.000  -0.0993   0.23297   0.10247   0.0063   1.0000   1.0000   1.0000 101.0000
  11.500  -0.1008   0.22979   0.10092   0.0069   1.0000   1.0000   1.0000 101.0000
  12.000  -0.1009   0.22686   0.09961   0.0073   1.0000   1.0000   1.0000 101.0000
  12.500  -0.0994   0.22423   0.09859   0.0074   1.0000   1.0000   1.0000 101.0000
  13.000  -0.0961   0.22192   0.09791   0.0071   1.0000   1.0000   1.0000 101.0000
  13.500  -0.0912   0.21994   0.09759   0.0066   1.0000   1.0000   1.0000 101.0000
  14.000  -0.0846   0.21829   0.09765   0.0058   1.0000   1.0000   1.0000 101.0000
  14.500  -0.0765   0.21697   0.09810   0.0048   1.0000   1.0000   1.0000 101.0000
  15.000  -0.0668   0.21596   0.09896   0.0035   1.0000   1.0000   1.0000 101.0000
