  
       XFOIL         Version 6.99
  
 Calculated polar for: 002259                                          
  
 1 1 Reynolds number fixed          Mach number fixed         
  
 xtrf =   1.000 (top)        1.000 (bottom)  
 Mach =   0.100     Re =     0.300 e 6     Ncrit =   9.000  9.000
  
   alpha    CL        CD       CDp       CM     Top_Xtr  Bot_Xtr  Top_Itr  Bot_Itr
  ------ -------- --------- --------- -------- -------- -------- -------- --------
   2.500   0.1057   0.03945  -0.00065  -0.0612   0.6763   0.1357  13.9826  64.2929
   3.500   0.1606   0.04216   0.00114  -0.0556   0.6550   0.1522  14.8376  65.2036
   4.000   0.2276   0.04203   0.00059  -0.0579   0.6533   0.1670  14.9051  65.9996
   4.500   0.3086   0.04191   0.00061  -0.0633   0.6521   0.1881  14.9549  67.0886
