  
       XFOIL         Version 6.99
  
 Calculated polar for: 002245                                          
  
 1 1 Reynolds number fixed          Mach number fixed         
  
 xtrf =   1.000 (top)        1.000 (bottom)  
 Mach =   0.100     Re =     0.001 e 6     Ncrit =   9.000  9.000
  
   alpha    CL        CD       CDp       CM     Top_Xtr  Bot_Xtr  Top_Itr  Bot_Itr
  ------ -------- --------- --------- -------- -------- -------- -------- --------
   2.000  -0.0600   0.29979   0.14853  -0.0146   1.0000   1.0000   1.0000 101.0000
   2.500  -0.0609   0.29683   0.14574  -0.0136   1.0000   1.0000   1.0000 101.0000
   3.000  -0.0620   0.29380   0.14300  -0.0125   1.0000   1.0000   1.0000 101.0000
   3.500  -0.0634   0.29073   0.14031  -0.0114   1.0000   1.0000   1.0000 101.0000
   4.000  -0.0649   0.28759   0.13766  -0.0102   1.0000   1.0000   1.0000 101.0000
   4.500  -0.0666   0.28439   0.13504  -0.0091   1.0000   1.0000   1.0000 101.0000
   5.000  -0.0686   0.28114   0.13248  -0.0079   1.0000   1.0000   1.0000 101.0000
   5.500  -0.0708   0.27781   0.12995  -0.0067   1.0000   1.0000   1.0000 101.0000
   6.000  -0.0731   0.27441   0.12747  -0.0055   1.0000   1.0000   1.0000 101.0000
   6.500  -0.0757   0.27093   0.12503  -0.0043   1.0000   1.0000   1.0000 101.0000
   7.000  -0.0785   0.26738   0.12263  -0.0030   1.0000   1.0000   1.0000 101.0000
   7.500  -0.0814   0.26376   0.12027  -0.0018   1.0000   1.0000   1.0000 101.0000
   8.000  -0.0845   0.26008   0.11795  -0.0005   1.0000   1.0000   1.0000 101.0000
   8.500  -0.0877   0.25637   0.11568   0.0007   1.0000   1.0000   1.0000 101.0000
   9.000  -0.0909   0.25264   0.11345   0.0020   1.0000   1.0000   1.0000 101.0000
   9.500  -0.0941   0.24891   0.11127   0.0032   1.0000   1.0000   1.0000 101.0000
  10.000  -0.0972   0.24520   0.10915   0.0044   1.0000   1.0000   1.0000 101.0000
  10.500  -0.1002   0.24154   0.10709   0.0056   1.0000   1.0000   1.0000 101.0000
  11.000  -0.1026   0.23799   0.10512   0.0067   1.0000   1.0000   1.0000 101.0000
  11.500  -0.1043   0.23460   0.10332   0.0076   1.0000   1.0000   1.0000 101.0000
  12.000  -0.1050   0.23142   0.10172   0.0084   1.0000   1.0000   1.0000 101.0000
  12.500  -0.1044   0.22849   0.10037   0.0089   1.0000   1.0000   1.0000 101.0000
  13.000  -0.1024   0.22584   0.09929   0.0092   1.0000   1.0000   1.0000 101.0000
  13.500  -0.0990   0.22348   0.09853   0.0093   1.0000   1.0000   1.0000 101.0000
  14.000  -0.0941   0.22142   0.09811   0.0091   1.0000   1.0000   1.0000 101.0000
  14.500  -0.0878   0.21966   0.09804   0.0087   1.0000   1.0000   1.0000 101.0000
  15.000  -0.0802   0.21819   0.09833   0.0080   1.0000   1.0000   1.0000 101.0000
