  
       XFOIL         Version 6.99
  
 Calculated polar for: 002209                                          
  
 1 1 Reynolds number fixed          Mach number fixed         
  
 xtrf =   1.000 (top)        1.000 (bottom)  
 Mach =   0.100     Re =     0.001 e 6     Ncrit =   9.000  9.000
  
   alpha    CL        CD       CDp       CM     Top_Xtr  Bot_Xtr  Top_Itr  Bot_Itr
  ------ -------- --------- --------- -------- -------- -------- -------- --------
   2.000  -0.1235   0.29021   0.14760  -0.0203   1.0000   1.0000   1.0000 101.0000
   2.500  -0.1238   0.28636   0.14389  -0.0193   1.0000   1.0000   1.0000 101.0000
   3.000  -0.1242   0.28244   0.14021  -0.0183   1.0000   1.0000   1.0000 101.0000
   3.500  -0.1248   0.27845   0.13655  -0.0173   1.0000   1.0000   1.0000 101.0000
   4.000  -0.1255   0.27438   0.13292  -0.0163   1.0000   1.0000   1.0000 101.0000
   4.500  -0.1264   0.27023   0.12931  -0.0152   1.0000   1.0000   1.0000 101.0000
   5.000  -0.1275   0.26600   0.12574  -0.0141   1.0000   1.0000   1.0000 101.0000
   5.500  -0.1287   0.26170   0.12219  -0.0129   1.0000   1.0000   1.0000 101.0000
   6.000  -0.1300   0.25732   0.11867  -0.0117   1.0000   1.0000   1.0000 101.0000
   6.500  -0.1314   0.25290   0.11519  -0.0105   1.0000   1.0000   1.0000 101.0000
   7.000  -0.1330   0.24843   0.11175  -0.0093   1.0000   1.0000   1.0000 101.0000
   7.500  -0.1345   0.24397   0.10835  -0.0081   1.0000   1.0000   1.0000 101.0000
   8.000  -0.1360   0.23952   0.10501  -0.0070   1.0000   1.0000   1.0000 101.0000
   8.500  -0.1373   0.23513   0.10173  -0.0058   1.0000   1.0000   1.0000 101.0000
   9.000  -0.1381   0.23088   0.09856  -0.0047   1.0000   1.0000   1.0000 101.0000
   9.500  -0.1379   0.22685   0.09556  -0.0038   1.0000   1.0000   1.0000 101.0000
  10.000  -0.1362   0.22309   0.09279  -0.0032   1.0000   1.0000   1.0000 101.0000
  10.500  -0.1328   0.21968   0.09032  -0.0029   1.0000   1.0000   1.0000 101.0000
  11.000  -0.1273   0.21666   0.08821  -0.0029   1.0000   1.0000   1.0000 101.0000
  11.500  -0.1196   0.21406   0.08650  -0.0033   1.0000   1.0000   1.0000 101.0000
  12.000  -0.1097   0.21188   0.08520  -0.0040   1.0000   1.0000   1.0000 101.0000
  12.500  -0.0977   0.21013   0.08438  -0.0050   1.0000   1.0000   1.0000 101.0000
  13.000  -0.0838   0.20878   0.08404  -0.0063   1.0000   1.0000   1.0000 101.0000
  13.500  -0.0681   0.20783   0.08417  -0.0079   1.0000   1.0000   1.0000 101.0000
  14.000  -0.0509   0.20724   0.08476  -0.0097   1.0000   1.0000   1.0000 101.0000
  14.500  -0.0325   0.20700   0.08582  -0.0116   1.0000   1.0000   1.0000 101.0000
  15.000  -0.0131   0.20706   0.08733  -0.0138   1.0000   1.0000   1.0000 101.0000
