  
       XFOIL         Version 6.99
  
 Calculated polar for: 002308                                          
  
 1 1 Reynolds number fixed          Mach number fixed         
  
 xtrf =   1.000 (top)        1.000 (bottom)  
 Mach =   0.100     Re =     0.001 e 6     Ncrit =   9.000  9.000
  
   alpha    CL        CD       CDp       CM     Top_Xtr  Bot_Xtr  Top_Itr  Bot_Itr
  ------ -------- --------- --------- -------- -------- -------- -------- --------
   2.000  -0.0926   0.29914   0.14725  -0.0182   1.0000   1.0000   1.0000 101.0000
   2.500  -0.0923   0.29589   0.14398  -0.0171   1.0000   1.0000   1.0000 101.0000
   3.000  -0.0921   0.29259   0.14077  -0.0159   1.0000   1.0000   1.0000 101.0000
   3.500  -0.0920   0.28925   0.13759  -0.0148   1.0000   1.0000   1.0000 101.0000
   4.000  -0.0921   0.28585   0.13446  -0.0136   1.0000   1.0000   1.0000 101.0000
   4.500  -0.0923   0.28241   0.13137  -0.0123   1.0000   1.0000   1.0000 101.0000
   5.000  -0.0927   0.27892   0.12833  -0.0111   1.0000   1.0000   1.0000 101.0000
   5.500  -0.0932   0.27538   0.12533  -0.0098   1.0000   1.0000   1.0000 101.0000
   6.000  -0.0939   0.27179   0.12238  -0.0085   1.0000   1.0000   1.0000 101.0000
   6.500  -0.0947   0.26814   0.11948  -0.0071   1.0000   1.0000   1.0000 101.0000
   7.000  -0.0956   0.26443   0.11663  -0.0058   1.0000   1.0000   1.0000 101.0000
   7.500  -0.0967   0.26068   0.11383  -0.0044   1.0000   1.0000   1.0000 101.0000
   8.000  -0.0979   0.25690   0.11109  -0.0030   1.0000   1.0000   1.0000 101.0000
   8.500  -0.0991   0.25310   0.10842  -0.0015   1.0000   1.0000   1.0000 101.0000
   9.000  -0.1004   0.24930   0.10579  -0.0001   1.0000   1.0000   1.0000 101.0000
   9.500  -0.1016   0.24553   0.10325   0.0013   1.0000   1.0000   1.0000 101.0000
  10.000  -0.1026   0.24181   0.10079   0.0027   1.0000   1.0000   1.0000 101.0000
  10.500  -0.1035   0.23816   0.09842   0.0040   1.0000   1.0000   1.0000 101.0000
  11.000  -0.1040   0.23464   0.09618   0.0053   1.0000   1.0000   1.0000 101.0000
  11.500  -0.1037   0.23129   0.09410   0.0065   1.0000   1.0000   1.0000 101.0000
  12.000  -0.1024   0.22816   0.09223   0.0075   1.0000   1.0000   1.0000 101.0000
  12.500  -0.1000   0.22527   0.09061   0.0083   1.0000   1.0000   1.0000 101.0000
  13.000  -0.0963   0.22266   0.08928   0.0088   1.0000   1.0000   1.0000 101.0000
  13.500  -0.0913   0.22033   0.08825   0.0092   1.0000   1.0000   1.0000 101.0000
  14.000  -0.0851   0.21829   0.08755   0.0093   1.0000   1.0000   1.0000 101.0000
  14.500  -0.0775   0.21653   0.08719   0.0092   1.0000   1.0000   1.0000 101.0000
  15.000  -0.0689   0.21505   0.08717   0.0089   1.0000   1.0000   1.0000 101.0000
