  
       XFOIL         Version 6.99
  
 Calculated polar for: 002367                                          
  
 1 1 Reynolds number fixed          Mach number fixed         
  
 xtrf =   1.000 (top)        1.000 (bottom)  
 Mach =   0.100     Re =     0.001 e 6     Ncrit =   9.000  9.000
  
   alpha    CL        CD       CDp       CM     Top_Xtr  Bot_Xtr  Top_Itr  Bot_Itr
  ------ -------- --------- --------- -------- -------- -------- -------- --------
   2.000  -0.1177   0.28850   0.14428  -0.0211   1.0000   1.0000   1.0000 101.0000
   2.500  -0.1176   0.28475   0.14055  -0.0201   1.0000   1.0000   1.0000 101.0000
   3.000  -0.1177   0.28094   0.13688  -0.0190   1.0000   1.0000   1.0000 101.0000
   3.500  -0.1179   0.27705   0.13321  -0.0179   1.0000   1.0000   1.0000 101.0000
   4.000  -0.1184   0.27309   0.12956  -0.0168   1.0000   1.0000   1.0000 101.0000
   4.500  -0.1190   0.26907   0.12595  -0.0156   1.0000   1.0000   1.0000 101.0000
   5.000  -0.1198   0.26497   0.12236  -0.0144   1.0000   1.0000   1.0000 101.0000
   5.500  -0.1208   0.26081   0.11880  -0.0132   1.0000   1.0000   1.0000 101.0000
   6.000  -0.1219   0.25658   0.11527  -0.0119   1.0000   1.0000   1.0000 101.0000
   6.500  -0.1232   0.25229   0.11177  -0.0106   1.0000   1.0000   1.0000 101.0000
   7.000  -0.1245   0.24796   0.10832  -0.0093   1.0000   1.0000   1.0000 101.0000
   7.500  -0.1259   0.24362   0.10492  -0.0080   1.0000   1.0000   1.0000 101.0000
   8.000  -0.1272   0.23931   0.10158  -0.0068   1.0000   1.0000   1.0000 101.0000
   8.500  -0.1283   0.23507   0.09832  -0.0055   1.0000   1.0000   1.0000 101.0000
   9.000  -0.1287   0.23100   0.09518  -0.0044   1.0000   1.0000   1.0000 101.0000
   9.500  -0.1279   0.22716   0.09223  -0.0036   1.0000   1.0000   1.0000 101.0000
  10.000  -0.1254   0.22363   0.08953  -0.0030   1.0000   1.0000   1.0000 101.0000
  10.500  -0.1210   0.22047   0.08715  -0.0027   1.0000   1.0000   1.0000 101.0000
  11.000  -0.1143   0.21772   0.08513  -0.0028   1.0000   1.0000   1.0000 101.0000
  11.500  -0.1053   0.21539   0.08354  -0.0033   1.0000   1.0000   1.0000 101.0000
  12.000  -0.0942   0.21350   0.08238  -0.0041   1.0000   1.0000   1.0000 101.0000
  12.500  -0.0809   0.21202   0.08168  -0.0051   1.0000   1.0000   1.0000 101.0000
  13.000  -0.0659   0.21094   0.08145  -0.0065   1.0000   1.0000   1.0000 101.0000
  13.500  -0.0492   0.21024   0.08169  -0.0080   1.0000   1.0000   1.0000 101.0000
  14.000  -0.0312   0.20988   0.08239  -0.0098   1.0000   1.0000   1.0000 101.0000
  14.500  -0.0122   0.20985   0.08355  -0.0117   1.0000   1.0000   1.0000 101.0000
  15.000   0.0077   0.21012   0.08512  -0.0137   1.0000   1.0000   1.0000 101.0000
