  
       XFOIL         Version 6.99
  
 Calculated polar for: 002332                                          
  
 1 1 Reynolds number fixed          Mach number fixed         
  
 xtrf =   1.000 (top)        1.000 (bottom)  
 Mach =   0.100     Re =     0.001 e 6     Ncrit =   9.000  9.000
  
   alpha    CL        CD       CDp       CM     Top_Xtr  Bot_Xtr  Top_Itr  Bot_Itr
  ------ -------- --------- --------- -------- -------- -------- -------- --------
   2.000  -0.2016   0.29039   0.19538  -0.0276   1.0000   1.0000   1.0000 101.0000
   2.500  -0.2013   0.28650   0.18994  -0.0263   1.0000   1.0000   1.0000 101.0000
   3.000  -0.2012   0.28255   0.18455  -0.0251   1.0000   1.0000   1.0000 101.0000
   3.500  -0.2012   0.27856   0.17922  -0.0237   1.0000   1.0000   1.0000 101.0000
   4.000  -0.2015   0.27452   0.17394  -0.0224   1.0000   1.0000   1.0000 101.0000
   4.500  -0.2020   0.27045   0.16871  -0.0209   1.0000   1.0000   1.0000 101.0000
   5.000  -0.2026   0.26636   0.16356  -0.0194   1.0000   1.0000   1.0000 101.0000
   5.500  -0.2033   0.26224   0.15846  -0.0179   1.0000   1.0000   1.0000 101.0000
   6.000  -0.2039   0.25815   0.15342  -0.0164   1.0000   1.0000   1.0000 101.0000
   6.500  -0.2044   0.25409   0.14846  -0.0149   1.0000   1.0000   1.0000 101.0000
   7.000  -0.2046   0.25012   0.14361  -0.0134   1.0000   1.0000   1.0000 101.0000
   7.500  -0.2041   0.24628   0.13888  -0.0120   1.0000   1.0000   1.0000 101.0000
   8.000  -0.2026   0.24265   0.13435  -0.0107   1.0000   1.0000   1.0000 101.0000
   8.500  -0.1994   0.23930   0.13008  -0.0097   1.0000   1.0000   1.0000 101.0000
   9.000  -0.1939   0.23628   0.12616  -0.0089   1.0000   1.0000   1.0000 101.0000
   9.500  -0.1861   0.23365   0.12265  -0.0086   1.0000   1.0000   1.0000 101.0000
  10.000  -0.1756   0.23141   0.11960  -0.0085   1.0000   1.0000   1.0000 101.0000
  10.500  -0.1625   0.22957   0.11704  -0.0088   1.0000   1.0000   1.0000 101.0000
  11.000  -0.1470   0.22813   0.11501  -0.0094   1.0000   1.0000   1.0000 101.0000
  11.500  -0.1294   0.22706   0.11350  -0.0102   1.0000   1.0000   1.0000 101.0000
  12.000  -0.1098   0.22634   0.11253  -0.0113   1.0000   1.0000   1.0000 101.0000
  12.500  -0.0885   0.22596   0.11209  -0.0125   1.0000   1.0000   1.0000 101.0000
  13.000  -0.0659   0.22587   0.11217  -0.0139   1.0000   1.0000   1.0000 101.0000
  13.500  -0.0420   0.22607   0.11276  -0.0154   1.0000   1.0000   1.0000 101.0000
  14.000  -0.0173   0.22652   0.11384  -0.0171   1.0000   1.0000   1.0000 101.0000
  14.500   0.0083   0.22722   0.11540  -0.0188   1.0000   1.0000   1.0000 101.0000
  15.000   0.0343   0.22813   0.11744  -0.0206   1.0000   1.0000   1.0000 101.0000
