  
       XFOIL         Version 6.99
  
 Calculated polar for: 002423                                          
  
 1 1 Reynolds number fixed          Mach number fixed         
  
 xtrf =   1.000 (top)        1.000 (bottom)  
 Mach =   0.100     Re =     0.001 e 6     Ncrit =   9.000  9.000
  
   alpha    CL        CD       CDp       CM     Top_Xtr  Bot_Xtr  Top_Itr  Bot_Itr
  ------ -------- --------- --------- -------- -------- -------- -------- --------
   2.000  -0.1223   0.29175   0.14779  -0.0214   1.0000   1.0000   1.0000 101.0000
   2.500  -0.1217   0.28794   0.14393  -0.0205   1.0000   1.0000   1.0000 101.0000
   3.000  -0.1213   0.28406   0.14010  -0.0195   1.0000   1.0000   1.0000 101.0000
   3.500  -0.1210   0.28014   0.13633  -0.0184   1.0000   1.0000   1.0000 101.0000
   4.000  -0.1208   0.27614   0.13257  -0.0174   1.0000   1.0000   1.0000 101.0000
   4.500  -0.1209   0.27207   0.12884  -0.0163   1.0000   1.0000   1.0000 101.0000
   5.000  -0.1210   0.26794   0.12515  -0.0151   1.0000   1.0000   1.0000 101.0000
   5.500  -0.1214   0.26373   0.12149  -0.0140   1.0000   1.0000   1.0000 101.0000
   6.000  -0.1219   0.25946   0.11787  -0.0128   1.0000   1.0000   1.0000 101.0000
   6.500  -0.1225   0.25513   0.11429  -0.0115   1.0000   1.0000   1.0000 101.0000
   7.000  -0.1233   0.25074   0.11075  -0.0103   1.0000   1.0000   1.0000 101.0000
   7.500  -0.1242   0.24632   0.10726  -0.0090   1.0000   1.0000   1.0000 101.0000
   8.000  -0.1252   0.24190   0.10383  -0.0078   1.0000   1.0000   1.0000 101.0000
   8.500  -0.1261   0.23750   0.10047  -0.0065   1.0000   1.0000   1.0000 101.0000
   9.000  -0.1269   0.23315   0.09717  -0.0053   1.0000   1.0000   1.0000 101.0000
   9.500  -0.1273   0.22894   0.09399  -0.0042   1.0000   1.0000   1.0000 101.0000
  10.000  -0.1267   0.22494   0.09097  -0.0032   1.0000   1.0000   1.0000 101.0000
  10.500  -0.1248   0.22121   0.08819  -0.0025   1.0000   1.0000   1.0000 101.0000
  11.000  -0.1212   0.21781   0.08571  -0.0021   1.0000   1.0000   1.0000 101.0000
  11.500  -0.1155   0.21481   0.08358  -0.0020   1.0000   1.0000   1.0000 101.0000
  12.000  -0.1078   0.21221   0.08185  -0.0022   1.0000   1.0000   1.0000 101.0000
  12.500  -0.0979   0.21004   0.08055  -0.0028   1.0000   1.0000   1.0000 101.0000
  13.000  -0.0859   0.20828   0.07971  -0.0037   1.0000   1.0000   1.0000 101.0000
  13.500  -0.0721   0.20693   0.07935  -0.0049   1.0000   1.0000   1.0000 101.0000
  14.000  -0.0565   0.20596   0.07946  -0.0064   1.0000   1.0000   1.0000 101.0000
  14.500  -0.0396   0.20536   0.08004  -0.0081   1.0000   1.0000   1.0000 101.0000
  15.000  -0.0214   0.20509   0.08108  -0.0099   1.0000   1.0000   1.0000 101.0000
