  
       XFOIL         Version 6.99
  
 Calculated polar for: 002432                                          
  
 1 1 Reynolds number fixed          Mach number fixed         
  
 xtrf =   1.000 (top)        1.000 (bottom)  
 Mach =   0.100     Re =     0.300 e 6     Ncrit =   9.000  9.000
  
   alpha    CL        CD       CDp       CM     Top_Xtr  Bot_Xtr  Top_Itr  Bot_Itr
  ------ -------- --------- --------- -------- -------- -------- -------- --------
   3.500   0.5204   0.02426  -0.01338  -0.0634   0.6299   0.1531  15.8196  65.2517
   4.000   0.5628   0.02445  -0.01397  -0.0610   0.6110   0.1649  16.5813  65.8848
