  
       XFOIL         Version 6.99
  
 Calculated polar for: 002559                                          
  
 1 1 Reynolds number fixed          Mach number fixed         
  
 xtrf =   1.000 (top)        1.000 (bottom)  
 Mach =   0.100     Re =     0.001 e 6     Ncrit =   9.000  9.000
  
   alpha    CL        CD       CDp       CM     Top_Xtr  Bot_Xtr  Top_Itr  Bot_Itr
  ------ -------- --------- --------- -------- -------- -------- -------- --------
   2.000  -0.1086   0.28736   0.14337  -0.0216   1.0000   1.0000   1.0000 101.0000
   3.500  -0.1073   0.27633   0.13253  -0.0185   1.0000   1.0000   1.0000 101.0000
   4.000  -0.1072   0.27252   0.12897  -0.0174   1.0000   1.0000   1.0000 101.0000
   4.500  -0.1073   0.26864   0.12544  -0.0163   1.0000   1.0000   1.0000 101.0000
   5.000  -0.1076   0.26470   0.12195  -0.0151   1.0000   1.0000   1.0000 101.0000
   5.500  -0.1080   0.26070   0.11850  -0.0140   1.0000   1.0000   1.0000 101.0000
   6.000  -0.1086   0.25663   0.11508  -0.0127   1.0000   1.0000   1.0000 101.0000
   6.500  -0.1095   0.25249   0.11170  -0.0115   1.0000   1.0000   1.0000 101.0000
   7.000  -0.1104   0.24830   0.10835  -0.0103   1.0000   1.0000   1.0000 101.0000
   7.500  -0.1115   0.24405   0.10505  -0.0090   1.0000   1.0000   1.0000 101.0000
   8.000  -0.1127   0.23978   0.10181  -0.0078   1.0000   1.0000   1.0000 101.0000
   8.500  -0.1139   0.23551   0.09862  -0.0065   1.0000   1.0000   1.0000 101.0000
   9.000  -0.1150   0.23128   0.09550  -0.0053   1.0000   1.0000   1.0000 101.0000
   9.500  -0.1157   0.22717   0.09250  -0.0042   1.0000   1.0000   1.0000 101.0000
  10.000  -0.1155   0.22325   0.08965  -0.0033   1.0000   1.0000   1.0000 101.0000
  10.500  -0.1140   0.21959   0.08703  -0.0026   1.0000   1.0000   1.0000 101.0000
  11.000  -0.1107   0.21625   0.08470  -0.0023   1.0000   1.0000   1.0000 101.0000
  11.500  -0.1053   0.21329   0.08273  -0.0024   1.0000   1.0000   1.0000 101.0000
  12.000  -0.0978   0.21075   0.08116  -0.0028   1.0000   1.0000   1.0000 101.0000
  12.500  -0.0879   0.20863   0.08004  -0.0036   1.0000   1.0000   1.0000 101.0000
  13.000  -0.0758   0.20695   0.07940  -0.0048   1.0000   1.0000   1.0000 101.0000
  13.500  -0.0616   0.20570   0.07926  -0.0063   1.0000   1.0000   1.0000 101.0000
  14.000  -0.0455   0.20486   0.07963  -0.0081   1.0000   1.0000   1.0000 101.0000
  14.500  -0.0278   0.20441   0.08050  -0.0102   1.0000   1.0000   1.0000 101.0000
  15.000  -0.0086   0.20433   0.08184  -0.0125   1.0000   1.0000   1.0000 101.0000
