  
       XFOIL         Version 6.99
  
 Calculated polar for: 002506                                          
  
 1 1 Reynolds number fixed          Mach number fixed         
  
 xtrf =   1.000 (top)        1.000 (bottom)  
 Mach =   0.100     Re =     0.001 e 6     Ncrit =   9.000  9.000
  
   alpha    CL        CD       CDp       CM     Top_Xtr  Bot_Xtr  Top_Itr  Bot_Itr
  ------ -------- --------- --------- -------- -------- -------- -------- --------
   2.000  -0.1438   0.31078   0.22315  -0.0225   1.0000   1.0000   1.0000 101.0000
   2.500  -0.1438   0.30740   0.21824  -0.0215   1.0000   1.0000   1.0000 101.0000
   3.000  -0.1440   0.30398   0.21339  -0.0204   1.0000   1.0000   1.0000 101.0000
   3.500  -0.1444   0.30051   0.20861  -0.0193   1.0000   1.0000   1.0000 101.0000
   4.000  -0.1450   0.29698   0.20388  -0.0181   1.0000   1.0000   1.0000 101.0000
   4.500  -0.1458   0.29341   0.19922  -0.0170   1.0000   1.0000   1.0000 101.0000
   5.000  -0.1469   0.28979   0.19462  -0.0157   1.0000   1.0000   1.0000 101.0000
   5.500  -0.1481   0.28612   0.19007  -0.0145   1.0000   1.0000   1.0000 101.0000
   6.000  -0.1496   0.28240   0.18559  -0.0132   1.0000   1.0000   1.0000 101.0000
   6.500  -0.1513   0.27865   0.18116  -0.0118   1.0000   1.0000   1.0000 101.0000
   7.000  -0.1532   0.27486   0.17677  -0.0105   1.0000   1.0000   1.0000 101.0000
   7.500  -0.1552   0.27105   0.17245  -0.0091   1.0000   1.0000   1.0000 101.0000
   8.000  -0.1573   0.26723   0.16821  -0.0076   1.0000   1.0000   1.0000 101.0000
   8.500  -0.1594   0.26343   0.16404  -0.0062   1.0000   1.0000   1.0000 101.0000
   9.000  -0.1613   0.25968   0.15997  -0.0049   1.0000   1.0000   1.0000 101.0000
   9.500  -0.1630   0.25600   0.15601  -0.0035   1.0000   1.0000   1.0000 101.0000
  10.000  -0.1640   0.25246   0.15220  -0.0023   1.0000   1.0000   1.0000 101.0000
  10.500  -0.1641   0.24911   0.14861  -0.0012   1.0000   1.0000   1.0000 101.0000
  11.000  -0.1626   0.24602   0.14532  -0.0003   1.0000   1.0000   1.0000 101.0000
  11.500  -0.1593   0.24324   0.14240   0.0002   1.0000   1.0000   1.0000 101.0000
  12.000  -0.1539   0.24081   0.13991   0.0004   1.0000   1.0000   1.0000 101.0000
  12.500  -0.1464   0.23874   0.13791   0.0003   1.0000   1.0000   1.0000 101.0000
  13.000  -0.1367   0.23703   0.13640  -0.0001   1.0000   1.0000   1.0000 101.0000
  13.500  -0.1249   0.23569   0.13545  -0.0009   1.0000   1.0000   1.0000 101.0000
  14.000  -0.1112   0.23470   0.13506  -0.0019   1.0000   1.0000   1.0000 101.0000
  14.500  -0.0958   0.23405   0.13522  -0.0032   1.0000   1.0000   1.0000 101.0000
  15.000  -0.0788   0.23370   0.13593  -0.0046   1.0000   1.0000   1.0000 101.0000
