  
       XFOIL         Version 6.99
  
 Calculated polar for: 002641                                          
  
 1 1 Reynolds number fixed          Mach number fixed         
  
 xtrf =   1.000 (top)        1.000 (bottom)  
 Mach =   0.100     Re =     0.001 e 6     Ncrit =   9.000  9.000
  
   alpha    CL        CD       CDp       CM     Top_Xtr  Bot_Xtr  Top_Itr  Bot_Itr
  ------ -------- --------- --------- -------- -------- -------- -------- --------
   2.000  -0.1968   0.29853   0.20503  -0.0281   1.0000   1.0000   1.0000 101.0000
   2.500  -0.1957   0.29480   0.19962  -0.0269   1.0000   1.0000   1.0000 101.0000
   3.000  -0.1949   0.29102   0.19427  -0.0257   1.0000   1.0000   1.0000 101.0000
   3.500  -0.1941   0.28721   0.18898  -0.0245   1.0000   1.0000   1.0000 101.0000
   4.000  -0.1936   0.28335   0.18376  -0.0232   1.0000   1.0000   1.0000 101.0000
   4.500  -0.1932   0.27946   0.17862  -0.0219   1.0000   1.0000   1.0000 101.0000
   5.000  -0.1929   0.27553   0.17351  -0.0205   1.0000   1.0000   1.0000 101.0000
   5.500  -0.1929   0.27156   0.16847  -0.0191   1.0000   1.0000   1.0000 101.0000
   6.000  -0.1929   0.26758   0.16349  -0.0176   1.0000   1.0000   1.0000 101.0000
   6.500  -0.1931   0.26359   0.15857  -0.0161   1.0000   1.0000   1.0000 101.0000
   7.000  -0.1933   0.25960   0.15372  -0.0146   1.0000   1.0000   1.0000 101.0000
   7.500  -0.1934   0.25564   0.14896  -0.0130   1.0000   1.0000   1.0000 101.0000
   8.000  -0.1933   0.25174   0.14430  -0.0115   1.0000   1.0000   1.0000 101.0000
   8.500  -0.1929   0.24794   0.13974  -0.0100   1.0000   1.0000   1.0000 101.0000
   9.000  -0.1918   0.24430   0.13535  -0.0086   1.0000   1.0000   1.0000 101.0000
   9.500  -0.1895   0.24086   0.13117  -0.0073   1.0000   1.0000   1.0000 101.0000
  10.000  -0.1856   0.23771   0.12729  -0.0063   1.0000   1.0000   1.0000 101.0000
  10.500  -0.1797   0.23488   0.12377  -0.0057   1.0000   1.0000   1.0000 101.0000
  11.000  -0.1716   0.23241   0.12067  -0.0053   1.0000   1.0000   1.0000 101.0000
  11.500  -0.1611   0.23032   0.11804  -0.0052   1.0000   1.0000   1.0000 101.0000
  12.000  -0.1483   0.22861   0.11591  -0.0055   1.0000   1.0000   1.0000 101.0000
  12.500  -0.1333   0.22727   0.11429  -0.0061   1.0000   1.0000   1.0000 101.0000
  13.000  -0.1164   0.22628   0.11320  -0.0069   1.0000   1.0000   1.0000 101.0000
  13.500  -0.0976   0.22562   0.11264  -0.0080   1.0000   1.0000   1.0000 101.0000
  14.000  -0.0774   0.22529   0.11260  -0.0092   1.0000   1.0000   1.0000 101.0000
  14.500  -0.0558   0.22524   0.11307  -0.0107   1.0000   1.0000   1.0000 101.0000
  15.000  -0.0331   0.22547   0.11405  -0.0122   1.0000   1.0000   1.0000 101.0000
