  
       XFOIL         Version 6.99
  
 Calculated polar for: 002789                                          
  
 1 1 Reynolds number fixed          Mach number fixed         
  
 xtrf =   1.000 (top)        1.000 (bottom)  
 Mach =   0.100     Re =     0.001 e 6     Ncrit =   9.000  9.000
  
   alpha    CL        CD       CDp       CM     Top_Xtr  Bot_Xtr  Top_Itr  Bot_Itr
  ------ -------- --------- --------- -------- -------- -------- -------- --------
   2.000  -0.1265   0.29618   0.14613  -0.0220   1.0000   1.0000   1.0000 101.0000
   2.500  -0.1254   0.29266   0.14246  -0.0208   1.0000   1.0000   1.0000 101.0000
   3.000  -0.1245   0.28908   0.13883  -0.0197   1.0000   1.0000   1.0000 101.0000
   3.500  -0.1236   0.28546   0.13524  -0.0185   1.0000   1.0000   1.0000 101.0000
   4.000  -0.1228   0.28180   0.13168  -0.0172   1.0000   1.0000   1.0000 101.0000
   4.500  -0.1221   0.27809   0.12817  -0.0160   1.0000   1.0000   1.0000 101.0000
   5.000  -0.1214   0.27433   0.12470  -0.0146   1.0000   1.0000   1.0000 101.0000
   5.500  -0.1209   0.27053   0.12127  -0.0133   1.0000   1.0000   1.0000 101.0000
   6.000  -0.1205   0.26668   0.11788  -0.0119   1.0000   1.0000   1.0000 101.0000
   6.500  -0.1202   0.26279   0.11454  -0.0105   1.0000   1.0000   1.0000 101.0000
   7.000  -0.1200   0.25886   0.11125  -0.0091   1.0000   1.0000   1.0000 101.0000
   7.500  -0.1198   0.25490   0.10802  -0.0076   1.0000   1.0000   1.0000 101.0000
   8.500  -0.1196   0.24693   0.10180  -0.0046   1.0000   1.0000   1.0000 101.0000
   9.000  -0.1194   0.24297   0.09876  -0.0031   1.0000   1.0000   1.0000 101.0000
   9.500  -0.1191   0.23906   0.09580  -0.0015   1.0000   1.0000   1.0000 101.0000
  10.000  -0.1186   0.23522   0.09293  -0.0001   1.0000   1.0000   1.0000 101.0000
  10.500  -0.1177   0.23150   0.09017   0.0014   1.0000   1.0000   1.0000 101.0000
  11.000  -0.1160   0.22797   0.08757   0.0027   1.0000   1.0000   1.0000 101.0000
  11.500  -0.1134   0.22466   0.08518   0.0039   1.0000   1.0000   1.0000 101.0000
  12.000  -0.1095   0.22161   0.08303   0.0048   1.0000   1.0000   1.0000 101.0000
  12.500  -0.1042   0.21885   0.08116   0.0056   1.0000   1.0000   1.0000 101.0000
  13.000  -0.0975   0.21640   0.07961   0.0061   1.0000   1.0000   1.0000 101.0000
  13.500  -0.0894   0.21425   0.07838   0.0063   1.0000   1.0000   1.0000 101.0000
  14.000  -0.0800   0.21241   0.07751   0.0064   1.0000   1.0000   1.0000 101.0000
  14.500  -0.0693   0.21087   0.07701   0.0062   1.0000   1.0000   1.0000 101.0000
  15.000  -0.0574   0.20960   0.07687   0.0058   1.0000   1.0000   1.0000 101.0000
