  
       XFOIL         Version 6.99
  
 Calculated polar for: 002720                                          
  
 1 1 Reynolds number fixed          Mach number fixed         
  
 xtrf =   1.000 (top)        1.000 (bottom)  
 Mach =   0.100     Re =     0.001 e 6     Ncrit =   9.000  9.000
  
   alpha    CL        CD       CDp       CM     Top_Xtr  Bot_Xtr  Top_Itr  Bot_Itr
  ------ -------- --------- --------- -------- -------- -------- -------- --------
   2.000  -0.0760   0.29300   0.14019  -0.0156   1.0000   1.0000   1.0000 101.0000
   2.500  -0.0764   0.28978   0.13710  -0.0145   1.0000   1.0000   1.0000 101.0000
   3.000  -0.0770   0.28650   0.13408  -0.0134   1.0000   1.0000   1.0000 101.0000
   3.500  -0.0779   0.28319   0.13111  -0.0122   1.0000   1.0000   1.0000 101.0000
   4.000  -0.0789   0.27982   0.12819  -0.0110   1.0000   1.0000   1.0000 101.0000
   4.500  -0.0801   0.27641   0.12531  -0.0098   1.0000   1.0000   1.0000 101.0000
   5.000  -0.0816   0.27295   0.12251  -0.0085   1.0000   1.0000   1.0000 101.0000
   5.500  -0.0833   0.26945   0.11976  -0.0072   1.0000   1.0000   1.0000 101.0000
   6.000  -0.0851   0.26588   0.11706  -0.0059   1.0000   1.0000   1.0000 101.0000
   6.500  -0.0871   0.26227   0.11442  -0.0046   1.0000   1.0000   1.0000 101.0000
   7.000  -0.0893   0.25861   0.11184  -0.0032   1.0000   1.0000   1.0000 101.0000
   7.500  -0.0916   0.25492   0.10932  -0.0018   1.0000   1.0000   1.0000 101.0000
   8.000  -0.0940   0.25122   0.10687  -0.0005   1.0000   1.0000   1.0000 101.0000
   8.500  -0.0963   0.24753   0.10450   0.0009   1.0000   1.0000   1.0000 101.0000
   9.000  -0.0986   0.24388   0.10220   0.0022   1.0000   1.0000   1.0000 101.0000
   9.500  -0.1006   0.24029   0.10000   0.0035   1.0000   1.0000   1.0000 101.0000
  10.000  -0.1023   0.23682   0.09792   0.0048   1.0000   1.0000   1.0000 101.0000
  10.500  -0.1032   0.23353   0.09600   0.0059   1.0000   1.0000   1.0000 101.0000
  11.000  -0.1031   0.23043   0.09426   0.0068   1.0000   1.0000   1.0000 101.0000
  11.500  -0.1018   0.22760   0.09280   0.0075   1.0000   1.0000   1.0000 101.0000
  12.000  -0.0992   0.22504   0.09163   0.0080   1.0000   1.0000   1.0000 101.0000
  12.500  -0.0952   0.22277   0.09077   0.0083   1.0000   1.0000   1.0000 101.0000
  13.000  -0.0898   0.22078   0.09024   0.0083   1.0000   1.0000   1.0000 101.0000
  13.500  -0.0832   0.21908   0.09006   0.0081   1.0000   1.0000   1.0000 101.0000
  14.000  -0.0754   0.21766   0.09023   0.0077   1.0000   1.0000   1.0000 101.0000
  14.500  -0.0665   0.21650   0.09075   0.0072   1.0000   1.0000   1.0000 101.0000
  15.000  -0.0566   0.21560   0.09163   0.0064   1.0000   1.0000   1.0000 101.0000
