  
       XFOIL         Version 6.99
  
 Calculated polar for: 002909                                          
  
 1 1 Reynolds number fixed          Mach number fixed         
  
 xtrf =   1.000 (top)        1.000 (bottom)  
 Mach =   0.100     Re =     0.001 e 6     Ncrit =   9.000  9.000
  
   alpha    CL        CD       CDp       CM     Top_Xtr  Bot_Xtr  Top_Itr  Bot_Itr
  ------ -------- --------- --------- -------- -------- -------- -------- --------
   2.000  -0.2145   0.28900   0.18626  -0.0327   1.0000   1.0000   1.0000 101.0000
   2.500  -0.2124   0.28549   0.18111  -0.0313   1.0000   1.0000   1.0000 101.0000
   3.000  -0.2104   0.28195   0.17603  -0.0299   1.0000   1.0000   1.0000 101.0000
   3.500  -0.2085   0.27838   0.17101  -0.0284   1.0000   1.0000   1.0000 101.0000
   4.000  -0.2067   0.27479   0.16607  -0.0268   1.0000   1.0000   1.0000 101.0000
   4.500  -0.2051   0.27117   0.16119  -0.0252   1.0000   1.0000   1.0000 101.0000
   5.000  -0.2035   0.26753   0.15639  -0.0236   1.0000   1.0000   1.0000 101.0000
   5.500  -0.2021   0.26388   0.15166  -0.0218   1.0000   1.0000   1.0000 101.0000
   6.000  -0.2007   0.26023   0.14701  -0.0201   1.0000   1.0000   1.0000 101.0000
   6.500  -0.1993   0.25658   0.14243  -0.0183   1.0000   1.0000   1.0000 101.0000
   7.000  -0.1980   0.25297   0.13830  -0.0165   1.0000   1.0000   1.0000 101.0000
   7.500  -0.1966   0.24938   0.13391  -0.0146   1.0000   1.0000   1.0000 101.0000
   8.000  -0.1950   0.24584   0.12960  -0.0128   1.0000   1.0000   1.0000 101.0000
   8.500  -0.1930   0.24239   0.12540  -0.0110   1.0000   1.0000   1.0000 101.0000
   9.000  -0.1906   0.23905   0.12131  -0.0092   1.0000   1.0000   1.0000 101.0000
   9.500  -0.1873   0.23590   0.11740  -0.0075   1.0000   1.0000   1.0000 101.0000
  10.000  -0.1826   0.23296   0.11372  -0.0061   1.0000   1.0000   1.0000 101.0000
  10.500  -0.1764   0.23029   0.11032  -0.0048   1.0000   1.0000   1.0000 101.0000
  11.000  -0.1683   0.22791   0.10725  -0.0038   1.0000   1.0000   1.0000 101.0000
  11.500  -0.1582   0.22584   0.10455  -0.0031   1.0000   1.0000   1.0000 101.0000
  12.000  -0.1461   0.22410   0.10225  -0.0026   1.0000   1.0000   1.0000 101.0000
  12.500  -0.1321   0.22267   0.10037  -0.0025   1.0000   1.0000   1.0000 101.0000
  13.000  -0.1162   0.22155   0.09893  -0.0025   1.0000   1.0000   1.0000 101.0000
  13.500  -0.0987   0.22073   0.09794  -0.0028   1.0000   1.0000   1.0000 101.0000
  14.000  -0.0797   0.22019   0.09741  -0.0033   1.0000   1.0000   1.0000 101.0000
  14.500  -0.0594   0.21993   0.09732  -0.0039   1.0000   1.0000   1.0000 101.0000
  15.000  -0.0380   0.21992   0.09768  -0.0047   1.0000   1.0000   1.0000 101.0000
