  
       XFOIL         Version 6.99
  
 Calculated polar for: 003079                                          
  
 1 1 Reynolds number fixed          Mach number fixed         
  
 xtrf =   1.000 (top)        1.000 (bottom)  
 Mach =   0.100     Re =     0.005 e 6     Ncrit =   9.000  9.000
  
   alpha    CL        CD       CDp       CM     Top_Xtr  Bot_Xtr  Top_Itr  Bot_Itr
  ------ -------- --------- --------- -------- -------- -------- -------- --------
   2.000  -0.1534   0.23700   0.18216  -0.0206   1.0000   1.0000   1.0000 101.0000
   2.500  -0.1532   0.23373   0.17749  -0.0200   1.0000   1.0000   1.0000 101.0000
   3.000  -0.1534   0.23039   0.17284  -0.0194   1.0000   1.0000   1.0000 101.0000
   3.500  -0.1537   0.22695   0.16816  -0.0188   1.0000   1.0000   1.0000 101.0000
   4.000  -0.1543   0.22339   0.16348  -0.0182   1.0000   1.0000   1.0000 101.0000
   4.500  -0.1553   0.21969   0.15878  -0.0175   1.0000   1.0000   1.0000 101.0000
   5.000  -0.1567   0.21583   0.15406  -0.0168   1.0000   1.0000   1.0000 101.0000
   5.500  -0.1586   0.21177   0.14930  -0.0161   1.0000   1.0000   1.0000 101.0000
   6.000  -0.1612   0.20747   0.14447  -0.0153   1.0000   1.0000   1.0000 101.0000
   6.500  -0.1644   0.20285   0.13957  -0.0144   1.0000   1.0000   1.0000 101.0000
   7.000  -0.1686   0.19784   0.13455  -0.0134   1.0000   1.0000   1.0000 101.0000
   7.500  -0.1739   0.19232   0.12938  -0.0123   1.0000   1.0000   1.0000 101.0000
   8.000  -0.1807   0.18615   0.12399  -0.0111   1.0000   1.0000   1.0000 101.0000
   8.500  -0.1893   0.17912   0.11832  -0.0096   1.0000   1.0000   1.0000 101.0000
   9.000  -0.2001   0.17094   0.11225  -0.0078   1.0000   1.0000   1.0000 101.0000
   9.500  -0.2137   0.16132   0.10569  -0.0057   1.0000   1.0000   1.0000 101.0000
  10.000  -0.2275   0.15031   0.09893  -0.0037   1.0000   1.0000   1.0000 101.0000
  10.500  -0.2311   0.14016   0.09349  -0.0040   1.0000   1.0000   1.0000 101.0000
  11.000  -0.2063   0.13514   0.09239  -0.0097   1.0000   1.0000   1.0000 101.0000
  11.500  -0.1562   0.13522   0.09573  -0.0199   1.0000   1.0000   1.0000 101.0000
  12.000  -0.0961   0.13805   0.10149  -0.0311   1.0000   1.0000   1.0000 101.0000
  12.500  -0.0380   0.14181   0.10770  -0.0407   1.0000   1.0000   1.0000 101.0000
  13.000   0.0128   0.14563   0.11350  -0.0476   1.0000   1.0000   1.0000 101.0000
  13.500   0.0569   0.14930   0.11883  -0.0524   1.0000   1.0000   1.0000 101.0000
  14.000   0.0962   0.15283   0.12390  -0.0559   1.0000   1.0000   1.0000 101.0000
  14.500   0.1324   0.15626   0.12890  -0.0585   1.0000   1.0000   1.0000 101.0000
  15.000   0.1664   0.15963   0.13391  -0.0607   1.0000   1.0000   1.0000 101.0000
