  
       XFOIL         Version 6.99
  
 Calculated polar for: 003029                                          
  
 1 1 Reynolds number fixed          Mach number fixed         
  
 xtrf =   1.000 (top)        1.000 (bottom)  
 Mach =   0.100     Re =     0.001 e 6     Ncrit =   9.000  9.000
  
   alpha    CL        CD       CDp       CM     Top_Xtr  Bot_Xtr  Top_Itr  Bot_Itr
  ------ -------- --------- --------- -------- -------- -------- -------- --------
   2.000  -0.0921   0.30816   0.16365  -0.0164   1.0000   1.0000   1.0000 101.0000
   2.500  -0.0924   0.30462   0.16018  -0.0155   1.0000   1.0000   1.0000 101.0000
   3.000  -0.0929   0.30102   0.15674  -0.0146   1.0000   1.0000   1.0000 101.0000
   3.500  -0.0936   0.29735   0.15333  -0.0137   1.0000   1.0000   1.0000 101.0000
   4.000  -0.0944   0.29360   0.14996  -0.0128   1.0000   1.0000   1.0000 101.0000
   4.500  -0.0954   0.28978   0.14663  -0.0118   1.0000   1.0000   1.0000 101.0000
   5.000  -0.0966   0.28588   0.14334  -0.0108   1.0000   1.0000   1.0000 101.0000
   5.500  -0.0979   0.28190   0.14008  -0.0098   1.0000   1.0000   1.0000 101.0000
   6.000  -0.0994   0.27785   0.13686  -0.0087   1.0000   1.0000   1.0000 101.0000
   6.500  -0.1011   0.27373   0.13369  -0.0076   1.0000   1.0000   1.0000 101.0000
   7.000  -0.1030   0.26955   0.13056  -0.0065   1.0000   1.0000   1.0000 101.0000
   7.500  -0.1050   0.26532   0.12746  -0.0054   1.0000   1.0000   1.0000 101.0000
   8.000  -0.1072   0.26103   0.12441  -0.0043   1.0000   1.0000   1.0000 101.0000
   8.500  -0.1095   0.25672   0.12140  -0.0031   1.0000   1.0000   1.0000 101.0000
   9.000  -0.1118   0.25239   0.11843  -0.0020   1.0000   1.0000   1.0000 101.0000
   9.500  -0.1142   0.24806   0.11552  -0.0008   1.0000   1.0000   1.0000 101.0000
  10.000  -0.1165   0.24377   0.11267   0.0003   1.0000   1.0000   1.0000 101.0000
  10.500  -0.1186   0.23955   0.10990   0.0014   1.0000   1.0000   1.0000 101.0000
  11.000  -0.1202   0.23547   0.10726   0.0024   1.0000   1.0000   1.0000 101.0000
  11.500  -0.1210   0.23158   0.10478   0.0032   1.0000   1.0000   1.0000 101.0000
  12.000  -0.1205   0.22794   0.10252   0.0039   1.0000   1.0000   1.0000 101.0000
  12.500  -0.1186   0.22462   0.10058   0.0043   1.0000   1.0000   1.0000 101.0000
  13.000  -0.1151   0.22165   0.09898   0.0044   1.0000   1.0000   1.0000 101.0000
  13.500  -0.1099   0.21904   0.09776   0.0042   1.0000   1.0000   1.0000 101.0000
  14.000  -0.1030   0.21680   0.09694   0.0038   1.0000   1.0000   1.0000 101.0000
  14.500  -0.0944   0.21492   0.09655   0.0030   1.0000   1.0000   1.0000 101.0000
  15.000  -0.0844   0.21340   0.09659   0.0021   1.0000   1.0000   1.0000 101.0000
