  
       XFOIL         Version 6.99
  
 Calculated polar for: 003099                                          
  
 1 1 Reynolds number fixed          Mach number fixed         
  
 xtrf =   1.000 (top)        1.000 (bottom)  
 Mach =   0.100     Re =     0.005 e 6     Ncrit =   9.000  9.000
  
   alpha    CL        CD       CDp       CM     Top_Xtr  Bot_Xtr  Top_Itr  Bot_Itr
  ------ -------- --------- --------- -------- -------- -------- -------- --------
   2.000  -0.0377   0.22230   0.16648  -0.0063   1.0000   1.0000   1.0000 101.0000
   2.500  -0.0422   0.21994   0.16353  -0.0056   1.0000   1.0000   1.0000 101.0000
   3.000  -0.0475   0.21747   0.16054  -0.0049   1.0000   1.0000   1.0000 101.0000
   3.500  -0.0537   0.21487   0.15750  -0.0042   1.0000   1.0000   1.0000 101.0000
   4.000  -0.0608   0.21209   0.15437  -0.0034   1.0000   1.0000   1.0000 101.0000
   4.500  -0.0692   0.20908   0.15112  -0.0025   1.0000   1.0000   1.0000 101.0000
   5.000  -0.0790   0.20577   0.14768  -0.0015   1.0000   1.0000   1.0000 101.0000
   5.500  -0.0906   0.20206   0.14400  -0.0004   1.0000   1.0000   1.0000 101.0000
   6.000  -0.1044   0.19783   0.13997   0.0009   1.0000   1.0000   1.0000 101.0000
   6.500  -0.1212   0.19287   0.13546   0.0025   1.0000   1.0000   1.0000 101.0000
   7.000  -0.1421   0.18690   0.13025   0.0047   1.0000   1.0000   1.0000 101.0000
   7.500  -0.1690   0.17945   0.12398   0.0076   1.0000   1.0000   1.0000 101.0000
   8.000  -0.1990   0.17086   0.11702   0.0111   1.0000   1.0000   1.0000 101.0000
   8.500  -0.2147   0.16457   0.11231   0.0132   1.0000   1.0000   1.0000 101.0000
   9.000  -0.2125   0.16202   0.11097   0.0138   1.0000   1.0000   1.0000 101.0000
   9.500  -0.2010   0.16173   0.11173   0.0138   1.0000   1.0000   1.0000 101.0000
  10.000  -0.1852   0.16265   0.11373   0.0135   1.0000   1.0000   1.0000 101.0000
  10.500  -0.1671   0.16430   0.11656   0.0131   1.0000   1.0000   1.0000 101.0000
  11.000  -0.1479   0.16643   0.12001   0.0126   1.0000   1.0000   1.0000 101.0000
  11.500  -0.1280   0.16892   0.12398   0.0120   1.0000   1.0000   1.0000 101.0000
  12.000  -0.1076   0.17170   0.12838   0.0113   1.0000   1.0000   1.0000 101.0000
  12.500  -0.0870   0.17470   0.13319   0.0106   1.0000   1.0000   1.0000 101.0000
  13.000  -0.0662   0.17789   0.13834   0.0097   1.0000   1.0000   1.0000 101.0000
  13.500  -0.0454   0.18125   0.14383   0.0088   1.0000   1.0000   1.0000 101.0000
  14.000  -0.0245   0.18475   0.14963   0.0078   1.0000   1.0000   1.0000 101.0000
  14.500  -0.0037   0.18838   0.15572   0.0068   1.0000   1.0000   1.0000 101.0000
  15.000   0.0170   0.19212   0.16208   0.0056   1.0000   1.0000   1.0000 101.0000
