  
       XFOIL         Version 6.99
  
 Calculated polar for: 003006                                          
  
 1 1 Reynolds number fixed          Mach number fixed         
  
 xtrf =   1.000 (top)        1.000 (bottom)  
 Mach =   0.100     Re =     0.001 e 6     Ncrit =   9.000  9.000
  
   alpha    CL        CD       CDp       CM     Top_Xtr  Bot_Xtr  Top_Itr  Bot_Itr
  ------ -------- --------- --------- -------- -------- -------- -------- --------
   2.000  -0.1982   0.29745   0.15761  -0.0277   1.0000   1.0000   1.0000 101.0000
   2.500  -0.1968   0.29327   0.15316  -0.0267   1.0000   1.0000   1.0000 101.0000
   3.000  -0.1953   0.28903   0.14875  -0.0257   1.0000   1.0000   1.0000 101.0000
   3.500  -0.1939   0.28474   0.14436  -0.0246   1.0000   1.0000   1.0000 101.0000
   4.000  -0.1926   0.28037   0.14000  -0.0235   1.0000   1.0000   1.0000 101.0000
   4.500  -0.1912   0.27595   0.13567  -0.0224   1.0000   1.0000   1.0000 101.0000
   5.000  -0.1899   0.27147   0.13138  -0.0212   1.0000   1.0000   1.0000 101.0000
   5.500  -0.1887   0.26693   0.12713  -0.0199   1.0000   1.0000   1.0000 101.0000
   6.000  -0.1875   0.26233   0.12292  -0.0187   1.0000   1.0000   1.0000 101.0000
   6.500  -0.1863   0.25769   0.11877  -0.0173   1.0000   1.0000   1.0000 101.0000
   7.000  -0.1856   0.25304   0.11564  -0.0161   1.0000   1.0000   1.0000 101.0000
   7.500  -0.1845   0.24833   0.11159  -0.0147   1.0000   1.0000   1.0000 101.0000
   8.000  -0.1835   0.24361   0.10757  -0.0133   1.0000   1.0000   1.0000 101.0000
   8.500  -0.1824   0.23892   0.10360  -0.0119   1.0000   1.0000   1.0000 101.0000
   9.000  -0.1811   0.23427   0.09968  -0.0104   1.0000   1.0000   1.0000 101.0000
   9.500  -0.1795   0.22972   0.09584  -0.0090   1.0000   1.0000   1.0000 101.0000
  10.000  -0.1774   0.22532   0.09212  -0.0077   1.0000   1.0000   1.0000 101.0000
  10.500  -0.1743   0.22115   0.08855  -0.0064   1.0000   1.0000   1.0000 101.0000
  11.000  -0.1698   0.21727   0.08521  -0.0054   1.0000   1.0000   1.0000 101.0000
  11.500  -0.1635   0.21373   0.08215  -0.0047   1.0000   1.0000   1.0000 101.0000
  12.000  -0.1553   0.21057   0.07941  -0.0042   1.0000   1.0000   1.0000 101.0000
  12.500  -0.1451   0.20781   0.07701  -0.0041   1.0000   1.0000   1.0000 101.0000
  13.000  -0.1327   0.20546   0.07503  -0.0042   1.0000   1.0000   1.0000 101.0000
  13.500  -0.1184   0.20351   0.07346  -0.0046   1.0000   1.0000   1.0000 101.0000
  14.000  -0.1023   0.20194   0.07231  -0.0052   1.0000   1.0000   1.0000 101.0000
  14.500  -0.0846   0.20072   0.07157  -0.0061   1.0000   1.0000   1.0000 101.0000
  15.000  -0.0654   0.19984   0.07126  -0.0071   1.0000   1.0000   1.0000 101.0000
