  
       XFOIL         Version 6.99
  
 Calculated polar for: 003155                                          
  
 1 1 Reynolds number fixed          Mach number fixed         
  
 xtrf =   1.000 (top)        1.000 (bottom)  
 Mach =   0.100     Re =     0.001 e 6     Ncrit =   9.000  9.000
  
   alpha    CL        CD       CDp       CM     Top_Xtr  Bot_Xtr  Top_Itr  Bot_Itr
  ------ -------- --------- --------- -------- -------- -------- -------- --------
   2.000  -0.2012   0.23503   0.09933  -0.0216   1.0000   1.0000   1.0000 101.0000
   2.500  -0.2002   0.23152   0.09558  -0.0212   1.0000   1.0000   1.0000 101.0000
   3.000  -0.1958   0.22847   0.09210  -0.0211   1.0000   1.0000   1.0000 101.0000
   3.500  -0.1879   0.22590   0.08895  -0.0213   1.0000   1.0000   1.0000 101.0000
   4.000  -0.1768   0.22381   0.08620  -0.0218   1.0000   1.0000   1.0000 101.0000
   4.500  -0.1628   0.22215   0.08385  -0.0225   1.0000   1.0000   1.0000 101.0000
   5.000  -0.1464   0.22089   0.08193  -0.0233   1.0000   1.0000   1.0000 101.0000
   5.500  -0.1281   0.22000   0.08044  -0.0243   1.0000   1.0000   1.0000 101.0000
   6.000  -0.1083   0.21942   0.07936  -0.0252   1.0000   1.0000   1.0000 101.0000
   6.500  -0.0871   0.21914   0.07858  -0.0263   1.0000   1.0000   1.0000 101.0000
   7.000  -0.0651   0.21914   0.07831  -0.0273   1.0000   1.0000   1.0000 101.0000
   7.500  -0.0424   0.21939   0.07843  -0.0284   1.0000   1.0000   1.0000 101.0000
   8.000  -0.0192   0.21987   0.07893  -0.0295   1.0000   1.0000   1.0000 101.0000
   8.500   0.0043   0.22056   0.07977  -0.0306   1.0000   1.0000   1.0000 101.0000
   9.000   0.0279   0.22145   0.08095  -0.0317   1.0000   1.0000   1.0000 101.0000
   9.500   0.0516   0.22251   0.08245  -0.0328   1.0000   1.0000   1.0000 101.0000
  10.000   0.0752   0.22375   0.08424  -0.0339   1.0000   1.0000   1.0000 101.0000
  10.500   0.0988   0.22525   0.08620  -0.0350   1.0000   1.0000   1.0000 101.0000
  11.000   0.1221   0.22689   0.08858  -0.0361   1.0000   1.0000   1.0000 101.0000
  11.500   0.1451   0.22864   0.09124  -0.0373   1.0000   1.0000   1.0000 101.0000
  12.000   0.1677   0.23051   0.09416  -0.0384   1.0000   1.0000   1.0000 101.0000
  12.500   0.1899   0.23248   0.09733  -0.0396   1.0000   1.0000   1.0000 101.0000
  13.000   0.2117   0.23455   0.10073  -0.0407   1.0000   1.0000   1.0000 101.0000
  13.500   0.2330   0.23671   0.10434  -0.0419   1.0000   1.0000   1.0000 101.0000
  14.000   0.2539   0.23896   0.10804  -0.0432   1.0000   1.0000   1.0000 101.0000
  14.500   0.2743   0.24129   0.11207  -0.0444   1.0000   1.0000   1.0000 101.0000
  15.000   0.2942   0.24370   0.11630  -0.0456   1.0000   1.0000   1.0000 101.0000
