  
       XFOIL         Version 6.99
  
 Calculated polar for: 003252                                          
  
 1 1 Reynolds number fixed          Mach number fixed         
  
 xtrf =   1.000 (top)        1.000 (bottom)  
 Mach =   0.100     Re =     0.001 e 6     Ncrit =   9.000  9.000
  
   alpha    CL        CD       CDp       CM     Top_Xtr  Bot_Xtr  Top_Itr  Bot_Itr
  ------ -------- --------- --------- -------- -------- -------- -------- --------
   2.000  -0.0938   0.30111   0.16818  -0.0145   1.0000   1.0000   1.0000 101.0000
   2.500  -0.0957   0.29773   0.16498  -0.0139   1.0000   1.0000   1.0000 101.0000
   3.000  -0.0977   0.29425   0.16177  -0.0132   1.0000   1.0000   1.0000 101.0000
   3.500  -0.0998   0.29068   0.15858  -0.0124   1.0000   1.0000   1.0000 101.0000
   4.000  -0.1020   0.28702   0.15539  -0.0117   1.0000   1.0000   1.0000 101.0000
   4.500  -0.1043   0.28324   0.15222  -0.0110   1.0000   1.0000   1.0000 101.0000
   5.000  -0.1067   0.27937   0.14905  -0.0102   1.0000   1.0000   1.0000 101.0000
   5.500  -0.1091   0.27539   0.14590  -0.0095   1.0000   1.0000   1.0000 101.0000
   6.000  -0.1117   0.27132   0.14276  -0.0087   1.0000   1.0000   1.0000 101.0000
   6.500  -0.1144   0.26716   0.13962  -0.0079   1.0000   1.0000   1.0000 101.0000
   7.000  -0.1171   0.26291   0.13650  -0.0071   1.0000   1.0000   1.0000 101.0000
   7.500  -0.1199   0.25860   0.13339  -0.0063   1.0000   1.0000   1.0000 101.0000
   8.000  -0.1228   0.25422   0.13030  -0.0055   1.0000   1.0000   1.0000 101.0000
   8.500  -0.1256   0.24979   0.12722  -0.0047   1.0000   1.0000   1.0000 101.0000
   9.000  -0.1285   0.24534   0.12417  -0.0039   1.0000   1.0000   1.0000 101.0000
   9.500  -0.1313   0.24087   0.12111  -0.0031   1.0000   1.0000   1.0000 101.0000
  10.000  -0.1340   0.23645   0.11813  -0.0023   1.0000   1.0000   1.0000 101.0000
  10.500  -0.1363   0.23212   0.11523  -0.0016   1.0000   1.0000   1.0000 101.0000
  11.000  -0.1378   0.22795   0.11250  -0.0010   1.0000   1.0000   1.0000 101.0000
  11.500  -0.1381   0.22401   0.10999  -0.0007   1.0000   1.0000   1.0000 101.0000
  12.000  -0.1369   0.22037   0.10780  -0.0008   1.0000   1.0000   1.0000 101.0000
  12.500  -0.1337   0.21709   0.10599  -0.0011   1.0000   1.0000   1.0000 101.0000
  13.000  -0.1284   0.21422   0.10464  -0.0020   1.0000   1.0000   1.0000 101.0000
  13.500  -0.1207   0.21179   0.10381  -0.0032   1.0000   1.0000   1.0000 101.0000
  14.000  -0.1107   0.20984   0.10355  -0.0049   1.0000   1.0000   1.0000 101.0000
  14.500  -0.0981   0.20837   0.10391  -0.0070   1.0000   1.0000   1.0000 101.0000
  15.000  -0.0832   0.20740   0.10486  -0.0096   1.0000   1.0000   1.0000 101.0000
