  
       XFOIL         Version 6.99
  
 Calculated polar for: 003222                                          
  
 1 1 Reynolds number fixed          Mach number fixed         
  
 xtrf =   1.000 (top)        1.000 (bottom)  
 Mach =   0.100     Re =     0.001 e 6     Ncrit =   9.000  9.000
  
   alpha    CL        CD       CDp       CM     Top_Xtr  Bot_Xtr  Top_Itr  Bot_Itr
  ------ -------- --------- --------- -------- -------- -------- -------- --------
   2.000  -0.0887   0.30068   0.16569  -0.0154   1.0000   1.0000   1.0000 101.0000
   2.500  -0.0908   0.29713   0.16242  -0.0147   1.0000   1.0000   1.0000 101.0000
   3.000  -0.0931   0.29349   0.15916  -0.0139   1.0000   1.0000   1.0000 101.0000
   3.500  -0.0955   0.28974   0.15591  -0.0132   1.0000   1.0000   1.0000 101.0000
   4.000  -0.0980   0.28587   0.15267  -0.0124   1.0000   1.0000   1.0000 101.0000
   4.500  -0.1007   0.28190   0.14944  -0.0116   1.0000   1.0000   1.0000 101.0000
   5.000  -0.1036   0.27782   0.14621  -0.0107   1.0000   1.0000   1.0000 101.0000
   5.500  -0.1066   0.27363   0.14300  -0.0099   1.0000   1.0000   1.0000 101.0000
   6.000  -0.1098   0.26934   0.13980  -0.0091   1.0000   1.0000   1.0000 101.0000
   6.500  -0.1131   0.26496   0.13660  -0.0082   1.0000   1.0000   1.0000 101.0000
   7.000  -0.1165   0.26050   0.13341  -0.0073   1.0000   1.0000   1.0000 101.0000
   7.500  -0.1200   0.25597   0.13023  -0.0065   1.0000   1.0000   1.0000 101.0000
   8.000  -0.1236   0.25139   0.12706  -0.0056   1.0000   1.0000   1.0000 101.0000
   8.500  -0.1272   0.24679   0.12391  -0.0047   1.0000   1.0000   1.0000 101.0000
   9.000  -0.1307   0.24217   0.12075  -0.0039   1.0000   1.0000   1.0000 101.0000
   9.500  -0.1340   0.23763   0.11769  -0.0031   1.0000   1.0000   1.0000 101.0000
  10.000  -0.1367   0.23323   0.11474  -0.0025   1.0000   1.0000   1.0000 101.0000
  10.500  -0.1381   0.22905   0.11199  -0.0021   1.0000   1.0000   1.0000 101.0000
  11.000  -0.1379   0.22517   0.10951  -0.0020   1.0000   1.0000   1.0000 101.0000
  11.500  -0.1357   0.22168   0.10740  -0.0023   1.0000   1.0000   1.0000 101.0000
  12.000  -0.1311   0.21862   0.10571  -0.0031   1.0000   1.0000   1.0000 101.0000
  12.500  -0.1241   0.21604   0.10453  -0.0042   1.0000   1.0000   1.0000 101.0000
  13.000  -0.1144   0.21395   0.10390  -0.0059   1.0000   1.0000   1.0000 101.0000
  13.500  -0.1022   0.21238   0.10385  -0.0079   1.0000   1.0000   1.0000 101.0000
  14.000  -0.0876   0.21130   0.10440  -0.0104   1.0000   1.0000   1.0000 101.0000
  14.500  -0.0708   0.21071   0.10551  -0.0131   1.0000   1.0000   1.0000 101.0000
  15.000  -0.0520   0.21058   0.10725  -0.0162   1.0000   1.0000   1.0000 101.0000
