  
       XFOIL         Version 6.99
  
 Calculated polar for: 003210                                          
  
 1 1 Reynolds number fixed          Mach number fixed         
  
 xtrf =   1.000 (top)        1.000 (bottom)  
 Mach =   0.100     Re =     0.001 e 6     Ncrit =   9.000  9.000
  
   alpha    CL        CD       CDp       CM     Top_Xtr  Bot_Xtr  Top_Itr  Bot_Itr
  ------ -------- --------- --------- -------- -------- -------- -------- --------
   2.000  -0.2287   0.28730   0.19994  -0.0315   1.0000   1.0000   1.0000 101.0000
   2.500  -0.2304   0.28342   0.19474  -0.0302   1.0000   1.0000   1.0000 101.0000
   3.000  -0.2322   0.27946   0.18957  -0.0289   1.0000   1.0000   1.0000 101.0000
   3.500  -0.2342   0.27544   0.18442  -0.0276   1.0000   1.0000   1.0000 101.0000
   4.000  -0.2362   0.27139   0.17936  -0.0262   1.0000   1.0000   1.0000 101.0000
   4.500  -0.2384   0.26727   0.17424  -0.0247   1.0000   1.0000   1.0000 101.0000
   5.000  -0.2405   0.26312   0.16914  -0.0233   1.0000   1.0000   1.0000 101.0000
   5.500  -0.2425   0.25897   0.16408  -0.0218   1.0000   1.0000   1.0000 101.0000
   6.000  -0.2443   0.25485   0.15907  -0.0203   1.0000   1.0000   1.0000 101.0000
   6.500  -0.2457   0.25080   0.15413  -0.0189   1.0000   1.0000   1.0000 101.0000
   7.000  -0.2462   0.24690   0.14931  -0.0175   1.0000   1.0000   1.0000 101.0000
   7.500  -0.2453   0.24321   0.14467  -0.0164   1.0000   1.0000   1.0000 101.0000
   8.000  -0.2423   0.23982   0.14032  -0.0156   1.0000   1.0000   1.0000 101.0000
   8.500  -0.2368   0.23678   0.13632  -0.0151   1.0000   1.0000   1.0000 101.0000
   9.000  -0.2284   0.23414   0.13275  -0.0151   1.0000   1.0000   1.0000 101.0000
   9.500  -0.2171   0.23191   0.12967  -0.0154   1.0000   1.0000   1.0000 101.0000
  10.000  -0.2029   0.23010   0.12710  -0.0161   1.0000   1.0000   1.0000 101.0000
  10.500  -0.1860   0.22870   0.12508  -0.0172   1.0000   1.0000   1.0000 101.0000
  11.000  -0.1667   0.22769   0.12372  -0.0185   1.0000   1.0000   1.0000 101.0000
  11.500  -0.1452   0.22704   0.12279  -0.0201   1.0000   1.0000   1.0000 101.0000
  12.000  -0.1218   0.22674   0.12238  -0.0219   1.0000   1.0000   1.0000 101.0000
  12.500  -0.0968   0.22674   0.12250  -0.0238   1.0000   1.0000   1.0000 101.0000
  13.000  -0.0704   0.22704   0.12312  -0.0259   1.0000   1.0000   1.0000 101.0000
  13.500  -0.0429   0.22761   0.12422  -0.0281   1.0000   1.0000   1.0000 101.0000
  14.000  -0.0145   0.22843   0.12579  -0.0304   1.0000   1.0000   1.0000 101.0000
  14.500   0.0146   0.22947   0.12782  -0.0327   1.0000   1.0000   1.0000 101.0000
  15.000   0.0444   0.23072   0.13025  -0.0351   1.0000   1.0000   1.0000 101.0000
