  
       XFOIL         Version 6.99
  
 Calculated polar for: 003455                                          
  
 1 1 Reynolds number fixed          Mach number fixed         
  
 xtrf =   1.000 (top)        1.000 (bottom)  
 Mach =   0.100     Re =     0.001 e 6     Ncrit =   9.000  9.000
  
   alpha    CL        CD       CDp       CM     Top_Xtr  Bot_Xtr  Top_Itr  Bot_Itr
  ------ -------- --------- --------- -------- -------- -------- -------- --------
   2.000  -0.1116   0.19105   0.03228  -0.0094   1.0000   1.0000   1.0000 101.0000
   2.500  -0.0917   0.19029   0.03094  -0.0072   1.0000   1.0000   1.0000 101.0000
   3.000  -0.0710   0.18971   0.02987  -0.0051   1.0000   1.0000   1.0000 101.0000
   3.500  -0.0496   0.18931   0.02909  -0.0030   1.0000   1.0000   1.0000 101.0000
   4.000  -0.0282   0.18903   0.03000  -0.0011   1.0000   1.0000   1.0000 101.0000
   4.500  -0.0061   0.18896   0.02968   0.0008   1.0000   1.0000   1.0000 101.0000
   5.000   0.0165   0.18906   0.02958   0.0026   1.0000   1.0000   1.0000 101.0000
   5.500   0.0392   0.18933   0.02974   0.0044   1.0000   1.0000   1.0000 101.0000
   6.000   0.0621   0.18978   0.03015   0.0061   1.0000   1.0000   1.0000 101.0000
   6.500   0.0849   0.19039   0.03082   0.0077   1.0000   1.0000   1.0000 101.0000
   7.000   0.1075   0.19117   0.03178   0.0092   1.0000   1.0000   1.0000 101.0000
   7.500   0.1298   0.19213   0.03314   0.0107   1.0000   1.0000   1.0000 101.0000
   8.000   0.1517   0.19324   0.03466   0.0120   1.0000   1.0000   1.0000 101.0000
   8.500   0.1730   0.19453   0.03645   0.0132   1.0000   1.0000   1.0000 101.0000
   9.000   0.1936   0.19600   0.03854   0.0144   1.0000   1.0000   1.0000 101.0000
   9.500   0.2134   0.19763   0.04093   0.0154   1.0000   1.0000   1.0000 101.0000
  10.000   0.2322   0.19943   0.04364   0.0162   1.0000   1.0000   1.0000 101.0000
  10.500   0.2501   0.20141   0.04665   0.0169   1.0000   1.0000   1.0000 101.0000
  11.000   0.2667   0.20354   0.04999   0.0175   1.0000   1.0000   1.0000 101.0000
  12.000   0.2962   0.20830   0.05783   0.0181   1.0000   1.0000   1.0000 101.0000
  12.500   0.3089   0.21088   0.06206   0.0181   1.0000   1.0000   1.0000 101.0000
  13.000   0.3203   0.21359   0.06657   0.0178   1.0000   1.0000   1.0000 101.0000
  13.500   0.3303   0.21641   0.07135   0.0174   1.0000   1.0000   1.0000 101.0000
  14.000   0.3392   0.21934   0.07638   0.0167   1.0000   1.0000   1.0000 101.0000
  14.500   0.3470   0.22234   0.08165   0.0159   1.0000   1.0000   1.0000 101.0000
  15.000   0.3538   0.22541   0.08715   0.0148   1.0000   1.0000   1.0000 101.0000
