  
       XFOIL         Version 6.99
  
 Calculated polar for: 003551                                          
  
 1 1 Reynolds number fixed          Mach number fixed         
  
 xtrf =   1.000 (top)        1.000 (bottom)  
 Mach =   0.100     Re =     0.001 e 6     Ncrit =   9.000  9.000
  
   alpha    CL        CD       CDp       CM     Top_Xtr  Bot_Xtr  Top_Itr  Bot_Itr
  ------ -------- --------- --------- -------- -------- -------- -------- --------
   2.000  -0.0616   0.19812   0.04956  -0.0366   1.0000   1.0000   1.0000 101.0000
   2.500  -0.0359   0.19833   0.04847  -0.0362   1.0000   1.0000   1.0000 101.0000
   3.000  -0.0099   0.19875   0.04767  -0.0357   1.0000   1.0000   1.0000 101.0000
   3.500   0.0167   0.19935   0.04697  -0.0352   1.0000   1.0000   1.0000 101.0000
   4.000   0.0432   0.20015   0.04682  -0.0346   1.0000   1.0000   1.0000 101.0000
   4.500   0.0695   0.20112   0.04696  -0.0341   1.0000   1.0000   1.0000 101.0000
   5.000   0.0956   0.20224   0.04740  -0.0335   1.0000   1.0000   1.0000 101.0000
   5.500   0.1213   0.20351   0.04809  -0.0330   1.0000   1.0000   1.0000 101.0000
   6.000   0.1466   0.20492   0.04885  -0.0324   1.0000   1.0000   1.0000 101.0000
   6.500   0.1716   0.20646   0.05001  -0.0318   1.0000   1.0000   1.0000 101.0000
   7.000   0.1960   0.20813   0.05142  -0.0313   1.0000   1.0000   1.0000 101.0000
   7.500   0.2199   0.20991   0.05308  -0.0308   1.0000   1.0000   1.0000 101.0000
   8.000   0.2431   0.21180   0.05498  -0.0303   1.0000   1.0000   1.0000 101.0000
   8.500   0.2657   0.21380   0.05710  -0.0298   1.0000   1.0000   1.0000 101.0000
   9.000   0.2877   0.21590   0.05945  -0.0294   1.0000   1.0000   1.0000 101.0000
   9.500   0.3090   0.21810   0.06203  -0.0291   1.0000   1.0000   1.0000 101.0000
  10.000   0.3296   0.22039   0.06478  -0.0288   1.0000   1.0000   1.0000 101.0000
  10.500   0.3495   0.22277   0.06776  -0.0286   1.0000   1.0000   1.0000 101.0000
  11.000   0.3687   0.22524   0.07095  -0.0284   1.0000   1.0000   1.0000 101.0000
  11.500   0.3872   0.22780   0.07437  -0.0284   1.0000   1.0000   1.0000 101.0000
  12.000   0.4051   0.23051   0.07802  -0.0284   1.0000   1.0000   1.0000 101.0000
  12.500   0.4223   0.23330   0.08188  -0.0285   1.0000   1.0000   1.0000 101.0000
  13.000   0.4388   0.23617   0.08598  -0.0287   1.0000   1.0000   1.0000 101.0000
  13.500   0.4546   0.23911   0.09046  -0.0289   1.0000   1.0000   1.0000 101.0000
  14.000   0.4697   0.24213   0.09499  -0.0293   1.0000   1.0000   1.0000 101.0000
  14.500   0.4842   0.24524   0.09974  -0.0298   1.0000   1.0000   1.0000 101.0000
  15.000   0.4981   0.24844   0.10472  -0.0304   1.0000   1.0000   1.0000 101.0000
