  
       XFOIL         Version 6.99
  
 Calculated polar for: 003535                                          
  
 1 1 Reynolds number fixed          Mach number fixed         
  
 xtrf =   1.000 (top)        1.000 (bottom)  
 Mach =   0.100     Re =     0.001 e 6     Ncrit =   9.000  9.000
  
   alpha    CL        CD       CDp       CM     Top_Xtr  Bot_Xtr  Top_Itr  Bot_Itr
  ------ -------- --------- --------- -------- -------- -------- -------- --------
   2.000  -0.0874   0.19613   0.06800  -0.0398   1.0000   1.0000   1.0000 101.0000
   2.500  -0.0596   0.19606   0.06642  -0.0401   1.0000   1.0000   1.0000 101.0000
   3.000  -0.0308   0.19623   0.06525  -0.0404   1.0000   1.0000   1.0000 101.0000
   3.500  -0.0012   0.19662   0.06434  -0.0407   1.0000   1.0000   1.0000 101.0000
   4.000   0.0288   0.19725   0.06402  -0.0409   1.0000   1.0000   1.0000 101.0000
   4.500   0.0591   0.19808   0.06410  -0.0411   1.0000   1.0000   1.0000 101.0000
   5.000   0.0894   0.19910   0.06458  -0.0413   1.0000   1.0000   1.0000 101.0000
   5.500   0.1196   0.20030   0.06543  -0.0414   1.0000   1.0000   1.0000 101.0000
   6.000   0.1496   0.20167   0.06663  -0.0416   1.0000   1.0000   1.0000 101.0000
   6.500   0.1793   0.20319   0.06818  -0.0417   1.0000   1.0000   1.0000 101.0000
   7.000   0.2087   0.20485   0.06988  -0.0418   1.0000   1.0000   1.0000 101.0000
   7.500   0.2377   0.20666   0.07209  -0.0420   1.0000   1.0000   1.0000 101.0000
   8.000   0.2662   0.20860   0.07463  -0.0421   1.0000   1.0000   1.0000 101.0000
   8.500   0.2941   0.21067   0.07751  -0.0422   1.0000   1.0000   1.0000 101.0000
   9.000   0.3215   0.21285   0.08070  -0.0424   1.0000   1.0000   1.0000 101.0000
   9.500   0.3482   0.21515   0.08419  -0.0426   1.0000   1.0000   1.0000 101.0000
  10.000   0.3743   0.21755   0.08799  -0.0429   1.0000   1.0000   1.0000 101.0000
  10.500   0.3998   0.22005   0.09195  -0.0432   1.0000   1.0000   1.0000 101.0000
  11.000   0.4248   0.22265   0.09630  -0.0436   1.0000   1.0000   1.0000 101.0000
  11.500   0.4491   0.22534   0.10096  -0.0440   1.0000   1.0000   1.0000 101.0000
  12.000   0.4727   0.22813   0.10592  -0.0444   1.0000   1.0000   1.0000 101.0000
  12.500   0.4958   0.23099   0.11118  -0.0450   1.0000   1.0000   1.0000 101.0000
  13.000   0.5181   0.23394   0.11674  -0.0456   1.0000   1.0000   1.0000 101.0000
  13.500   0.5399   0.23700   0.12259  -0.0463   1.0000   1.0000   1.0000 101.0000
  14.000   0.5611   0.24014   0.12873  -0.0471   1.0000   1.0000   1.0000 101.0000
  14.500   0.5817   0.24335   0.13519  -0.0479   1.0000   1.0000   1.0000 101.0000
  15.000   0.6017   0.24662   0.14190  -0.0489   1.0000   1.0000   1.0000 101.0000
