  
       XFOIL         Version 6.99
  
 Calculated polar for: 004082                                          
  
 1 1 Reynolds number fixed          Mach number fixed         
  
 xtrf =   1.000 (top)        1.000 (bottom)  
 Mach =   0.100     Re =     0.300 e 6     Ncrit =   9.000  9.000
  
   alpha    CL        CD       CDp       CM     Top_Xtr  Bot_Xtr  Top_Itr  Bot_Itr
  ------ -------- --------- --------- -------- -------- -------- -------- --------
   2.000  -0.0187   0.04096   0.00038  -0.0667   0.6753   0.1172  14.0319  63.2341
   3.500   0.0871   0.04195  -0.00140  -0.0574   0.6533   0.1293  14.9168  63.9410
   4.000   0.1561   0.04113  -0.00265  -0.0592   0.6519   0.1366  14.9740  64.3541
   6.000   0.3509   0.04265  -0.00352  -0.0570   0.6273   0.1647  15.9677  65.8872
