  
       XFOIL         Version 6.97
  
 Calculated polar for: 000002                                          
  
 1 1 Reynolds number fixed          Mach number fixed         
  
 xtrf =   1.000 (top)        1.000 (bottom)  
 Mach =   0.100     Re =     0.300 e 6     Ncrit =   9.000
  
   alpha    CL        CD       CDp       CM     Top_Xtr  Bot_Xtr
  ------ -------- --------- --------- -------- -------- --------
   0.000   0.9020   0.01595   0.00829  -0.1324   0.5029   0.2743
   1.000   1.0130   0.01638   0.00869  -0.1322   0.4878   0.3338
   2.000   1.1216   0.01688   0.00918  -0.1319   0.4725   0.3919
   3.000   1.2265   0.01748   0.00989  -0.1314   0.4577   0.4604
   4.000   1.3246   0.01786   0.01078  -0.1303   0.4428   0.6434
